    23
        -45.37137318  Gyration_radius:  2.42271691588 Dipole_moment: 4.869
 S           1.12304632900444    0.27593441549872    0.41789940262321
O           1.08906157282084   -0.66225356231909    1.55133961134755
O           2.57920184637141    0.83557630968052    0.31864439273553
O           0.80453534195325   -0.40452207940138   -0.82904603392781
O           0.24597740916006    1.41153031546796    0.65411992117919
O          -2.66243203192548    0.72954923708776   -2.05791841696702
H          -2.92304339522156    0.62219797960963   -2.97384361979439
O          -1.70071439322262   -1.33730072700517   -0.70629983007911
H          -2.16832864217871   -0.65659577252525   -1.25095712437892
H          -0.74651746645950   -1.18422445422813   -0.87895393448137
H          -1.74627583899630   -0.80605471819974    0.66967357691798
O          -0.21906344920019    1.76550324167112   -2.01251772464305
H          -1.79988615771534    1.21652847123141   -2.07615734295486
H          -0.13397507493458    2.19002329643935   -1.14871576839304
H           0.25802811138734    0.92580347276987   -1.88271050571506
O           3.57755107226457   -1.46617416479905    1.16425985385731
H           3.17393735109232    0.06690940111822    0.45322113848501
H           4.06611739489953   -1.42336384530940    1.98950902061914
H           2.62898039834145   -1.44954705517087    1.40094764075463
N          -1.48607419067785   -0.29298349849679    1.61497950648606
H          -1.19721331514866    0.67034320542947    1.34781246720053
H          -0.56318645692447   -0.69930644356984    1.89986659973740
H          -2.19972642469109   -0.32757302499544    2.33484716938323
