    23
        -45.36936452  Gyration_radius:  2.4634498113 Dipole_moment: 3.952
 S           1.09369737094380   -0.67679858159194    0.14690147904774
O           1.51361459104303   -1.10144653182840   -1.17631510054458
O           0.91075023408290    0.75521055193265    0.25436049060087
O          -0.11068991149506   -1.38583975576002    0.61663221508478
O           2.20933083925790   -1.10332759173718    1.16975772214854
O          -2.38094568107582    1.46418176738929   -1.46276456911631
H          -2.23613919946972    1.97559234624547   -2.26017682898179
O          -1.18223559197839    2.21911685989904    0.78386460478584
H          -1.55779480816072    1.06958802399091    1.55949182632413
H          -0.28134259224908    1.88204264780564    0.56901256636441
H          -1.69129154914694    2.09395569119426   -0.05242194248338
O          -1.10975976127049   -0.86786413670516   -1.82388466161834
H          -0.18488378974845   -0.82806798099844   -2.10373498175120
H          -1.04085776806591   -1.28117634383706   -0.94982138152919
H          -1.95923732610700    0.58868747362088   -1.62377203520032
O           4.06768522877940   -0.77792711836397   -0.69650487257563
H           4.54637236668440   -1.56831654624022   -0.95643567575990
H           3.19476584332357   -0.82739042001374   -1.13989333709319
H           3.05206856010184   -0.92241055623067    0.70742790781523
N          -1.70712924840255    0.06193597707695    2.03037587225388
H          -1.02715875258071   -0.58210673229039    1.48926720641252
H          -2.66078046791653   -0.26209608862959    1.90513322629550
H          -1.45803857628468    0.07445702506357    3.01350025946524
