    23
        -45.37137328  Gyration_radius:  2.42265680852 Dipole_moment: 4.866
 S          -0.94358268423672    0.31877253814602   -0.72105200382395
O          -2.27844924351581    1.05122239743957   -1.07446927260468
O          -0.12457792418485    1.21487522391479    0.08245626237951
O          -1.30057724934888   -0.88776525847042    0.00801467864895
O          -0.27308028677630   -0.00963153784600   -1.98926919199138
O           1.23559456618673   -0.68859154121209    3.13927713581554
H           1.54750955309212   -0.22032108803660    3.91502641013290
O          -1.09523810284511    0.36229666748191    2.42560599301812
H           0.32063974389504   -0.35007289024844    2.96742071833616
H          -0.74623010282611    0.95313180770565    1.73384970287595
H          -1.54081671942645   -0.32272862085758    1.90995528154824
O           2.15116863993082   -0.02787056331690    0.74175029820786
H           1.95049824069446   -0.27707864537664    1.67791217412168
H           1.66623590613683   -1.16932627671107   -0.05721002615408
H           1.45064654631435    0.61526474062871    0.49776435190691
O          -1.16615764988829    2.16088557091944   -3.20552162908830
H          -2.05896156325127    1.68106701963116   -1.79403079518287
H          -0.60652504270955    1.40492649023500   -2.93822653200019
H          -1.56296544999691    1.92342482744347   -4.04674844694310
N           1.03626157369390   -1.83602383715249   -0.67655560084647
H           1.45503992557929   -2.72943625205334   -0.91138983643591
H           0.75895798296329   -1.25666446547900   -1.50430201136900
H           0.12460936052414   -1.91035631680439   -0.18025768054615
