    23
        -45.36936447  Gyration_radius:  2.46348229209 Dipole_moment: 3.952
 S           1.26451529954631   -0.21135114787905    0.17748008968150
O           2.42988997145160   -1.24994966123405   -0.01250494005011
O           1.77327476497122    0.89195562972168    0.97216889513184
O           0.91746902870012    0.19062094652417   -1.19797518468534
O           0.15105333882308   -0.89583454973373    0.79985006802580
O          -2.82169345693295    1.38100482394727    0.28703183053432
H          -3.12225312598195    1.72872597888390    1.12795116874833
O          -0.31943294646693    2.28196148597089   -0.04893851173387
H          -1.92398329289394    1.76029339694741    0.14387015417342
H           0.30136695861500    2.14254476076661    0.67943671957957
H           0.07233706455026    1.74746090187945   -0.75628509708837
O           3.42249805447965   -0.59517626152941    2.36009285460814
H           4.29577211081256   -0.19668078474575    2.35627038779565
H           2.79827066786444    0.10892539046445    2.08508977098595
H           2.88219080739656   -1.27666549375068    0.85428430619369
O          -2.33300868870363   -1.22098321350288    0.07316529414980
H          -1.75890228891137   -1.16853702758608   -1.24298489825813
H          -1.46535686112425   -1.22797138338907    0.54058070212865
H          -2.66791451978969   -0.30155524944850    0.20215461826322
N          -1.13981052595716   -1.02206433114702   -2.16734681993335
H          -0.90465576397508   -1.91001822785892   -2.59747193286476
H          -0.24059401983029   -0.54172937649968   -1.80557272102914
H          -1.61103257642065   -0.41497661685984   -2.83034675436603
