    23
        -45.37137327  Gyration_radius:  2.42283179722 Dipole_moment: 4.864
 S          -0.69974054721315   -0.39094369326472   -0.93251901389139
O           0.27928033632205   -1.42010019967589   -0.62082624156581
O          -1.92239493724291   -0.56551701319029   -0.13226649170805
O          -0.15270507897781    0.94708181866924   -0.75972161397148
O          -1.09385526120922   -0.57480158472922   -2.43388520883630
O           3.11574554884483    0.74485910193497    1.26408913378612
H           3.75728264062399    1.45630461442655    1.23928205171258
O           2.37765189509285    0.21538650743385   -1.23021292610673
H           1.55854427712823    0.74298557417894   -1.22073441125285
H           2.94667160046780    0.49878904522277    0.31956271540942
H           2.04264055418120   -0.69081923816683   -1.21444200097992
O           0.57427829780928    1.27771936335705    1.79380350920634
H           1.55339411971346    1.16033407067006    1.71463156263196
H           0.25855768536291    1.38124797525747    0.86995138215307
H           0.05630554347358   -0.08255195135217    2.03406799909473
O          -3.47912269257181    0.48607573986902   -1.99201023412335
H          -3.10788594831223    0.21989652249513   -1.12747130015693
H          -1.93885597345784   -0.09060427078183   -2.55286852194728
H          -4.22461397259150   -0.09478871134767   -2.16012954227107
N          -0.37025422809700   -1.09350920606644    1.88911384705263
H          -1.27470573094838   -0.93742739992607    1.38387280071785
H          -0.45172530016675   -1.65205972652812    2.73176961133996
H           0.19550715175887   -1.53755735848578    1.13694287370710
