    23
        -45.36936433  Gyration_radius:  2.46344614499 Dipole_moment: 3.934
 S           0.67938630530130    0.78124207742379   -0.77908038804374
O           0.09528897880231    1.09726796060158    0.50714074050138
O          -0.18355496927171    1.11730800971147   -1.89699475300562
O           2.00857034609938    1.60829735594359   -0.92664405325323
O           1.12823541609024   -0.62304920943228   -0.80907527306924
O          -2.45897786615934   -1.62441230867620    1.12185091890373
H          -3.34593883088515   -1.26193464988782    1.10791204642731
O          -1.44085225466166   -1.21734442284730   -1.32392799123489
H          -1.49677595878262   -0.32009238654191   -1.68043514719209
H          -0.48311894098309   -1.34782642658382   -1.24901820857499
H          -2.11125624840728   -1.52225205302845    0.20595110415044
O           0.66694544147512    3.58751631611382   -2.07731388881037
H           0.89989983096487    3.78196168782172   -2.98799337594543
H           0.10708353029426    2.78318430171504   -2.10279866179472
H           1.71877094478070    2.49132862791058   -1.23160041832172
O          -0.58037329307844   -0.39259020750541    2.53944337651828
H          -0.41001583540441    0.34913898157183    1.91330597761829
H          -1.36416571248691   -0.85471046728654    2.15731644164433
H           0.51791398633277   -1.19509958743127    2.07463586730530
N           1.33972817838436   -1.71559239449123    1.51582814500524
H           1.31456478871428   -1.26352449832187    0.53343450193246
H           1.15657001319462   -2.71105606193922    1.44055873734586
H           2.24207214992092   -1.54776064512842    1.94750428201875
