    23
        -45.36936434  Gyration_radius:  2.46332235532 Dipole_moment: 3.953
 S          -0.24595300374935   -1.22273825461245    0.34477261582836
O           1.01081122509590   -0.69083563910658    0.90276360115986
O           0.08017858083652   -2.73122566762647    0.04309662738009
O          -1.34227192198631   -1.18333424896405    1.29564943831427
O          -0.55687338372990   -0.57173152105997   -0.91027988443057
O          -0.33856805324835    3.13111312179431   -0.18100585264379
H          -1.20542003871708    3.53371862988067   -0.25035494131073
O          -2.47038463188051   -3.37103678385948    0.40133649534502
H          -2.65767496155560   -3.95977070042651    1.13600546411457
H          -2.32014177345018   -2.48434810068315    0.79145811055528
H          -0.79344102534483   -3.16760022421896   -0.01132954239047
O           0.47699085615429    1.49985801937682   -2.11178233026855
H           0.15442461598381    2.21837828245188   -1.51692100291308
H           1.67123580241945    1.05111447407851   -1.45128428050217
H          -0.05946397762094    0.71476526894827   -1.85239925027264
O          -0.49751636581589    1.34148521713595    1.80817241983350
H          -0.38771895768344    2.51598078886125    0.58664369677389
H          -1.22519166794603    0.70538762072326    1.77181555510220
H           0.27917593955155    0.76779439943796    1.72430875522738
N           2.46054267743637    0.59477634109872   -0.79692306917099
H           1.89922982179306    0.01164590775154   -0.07939288581862
H           2.99511989871101    1.31064641546409   -0.31538783579877
H           3.07291034489855   -0.01404335597936   -1.32896192520124
