    23
        -45.36936395  Gyration_radius:  2.46291845249 Dipole_moment: 3.951
 S          -0.30123645350562    0.52832496721139   -1.14127369215173
O          -1.19551025502717   -0.07072353919813   -0.17328902372673
O          -0.17327616999021    1.96634058996434   -0.98732093442246
O           1.00103277821300   -0.16290378575689   -1.13551161031151
O          -0.87644795962865    0.24390680839972   -2.57690556014069
O           0.76688128221126   -0.16212465105342    3.05434471626375
H           0.37116624775655    0.43184117030021    3.69387917542586
O           1.56519258088003    1.36671247549051    1.00266044485165
H           0.91233421354307    1.97426017469450    0.62783141504994
H           1.10829667468911    0.41085048772254    2.32946910571508
H           1.73397026566101    0.76606772546000    0.26110042473185
O          -2.23877564877570    2.51988542209086   -2.49929921281730
H          -1.99237649080403    3.18020827230938   -3.15099163623176
H          -1.55324937731830    0.93653895141370   -2.71434372766266
H          -1.55052990398178    2.55203518581327   -1.80198401448418
O          -0.80924092715620   -1.82827362923789    1.71558711517402
H          -1.18484043583216   -1.17058474409517    1.08511586967914
H           0.19269507187025   -2.30740536460977    0.80373474551468
H          -0.28642126494176   -1.28148078082761    2.34964215269438
N           0.96254117781174   -2.47386350383014    0.00455126367040
H           1.87286034949469   -2.66932685770384    0.40855336878556
H           0.99245479464677   -1.53331668250430   -0.52914140614032
H           0.68247943014945   -3.21696869199933   -0.62640896941662
