    23
        -45.36936431  Gyration_radius:  2.46334363881 Dipole_moment: 3.953
 S           0.14144877237583   -0.09042847680908    1.28343733415771
O          -1.26164275099007   -0.15762589044409    0.83542933801070
O           0.51420650560020    1.22825708086553    1.76303449850015
O           0.19982177528909   -1.08342406728884    2.50135930812498
O           1.02528165191694   -0.59264774173589    0.25277056270129
O           0.04822465301333    1.27979254861178   -2.88259800198243
H           0.75986494750693    1.86080434124819   -3.15545412668327
O          -0.73517915183377    2.13455601228211   -0.46594680855945
H          -0.04699534499361    2.25678888238439    0.20257576428211
H          -0.27207937462033    1.63258235597409   -2.02055392170136
H          -1.26829576619716    1.42201004995321   -0.08194463438364
O           2.17423961008440    0.32649115326638    3.57686439805953
H           1.98385670461104    0.74111241909280    4.42141680462655
H           0.99752835027661   -0.81674339127435    3.00055628650920
H           1.73941436433206    0.88047374089303    2.89494063628855
O           0.61876111922463   -1.23400745289518   -2.24297033593543
H           1.00073684961225   -1.05681891225459   -1.35187726795097
H          -0.68619516963321   -1.57493162000013   -1.74742357119797
H           0.47908796262304   -0.33568608069124   -2.62738264171483
N          -1.65232356692367   -1.70164537330640   -1.19096452530657
H          -1.52494792779171   -1.09344646988373   -0.30553776427156
H          -1.79885650331886   -2.66911669877184   -0.92394435197025
H          -2.43595771004539   -1.35634642915740   -1.73578695954890
