    23
        -45.37137305  Gyration_radius:  2.42257028559 Dipole_moment: 4.867
 S          -0.05863422547182   -0.79173430546159   -0.93885087414361
O           0.43341182532572   -1.47389448895600   -2.25635807590510
O           1.09819952303781   -0.53236445403231   -0.09397938324313
O          -0.73510217327122    0.43678770729097   -1.32273901776540
O          -0.98924009477175   -1.72406828881840   -0.28234713090149
O           0.93026238589909    3.07818198288424    1.23142830333549
H           1.71440504574774    3.52133371373602    1.55863572720614
O           0.31411700026734   -3.86455303323054   -1.12479736647944
H           0.61880660799338   -2.40887076582495   -2.02391583048374
H          -0.22319771416346   -3.25289226481587   -0.58333307595604
H          -0.29944434375392   -4.48080359537657   -1.53141631051138
O           0.29207634087321    0.67658920496945    2.15265129352846
H          -1.08391148437814    0.54430467558468    1.63613700092845
H           0.74592295580376    0.13970423476935    1.46735040970346
H           0.54488218709028    1.61131204046236    1.94978385088378
O           1.54399648800879    1.91678624337572   -1.07540629017785
H           0.70377568186611    1.80357398599445   -1.53904334087295
H           1.16053141652011    2.75334115741072    0.32446225104212
H           1.70698737724115    1.02652357225790   -0.71449251998499
N          -1.95454853295038    0.33155790550376    0.98709000368835
H          -1.85251600380125   -0.67616460311580    0.71712313907068
H          -1.75397351384691    0.79523203174512    0.07776660262235
H          -2.85680674942769    0.57011732366546    1.38425063438541
