    23
        -45.36936346  Gyration_radius:  2.46259145269 Dipole_moment: 3.946
 S          -0.47668071184602   -0.50170703916538    1.09234836118387
O          -0.57225447989123   -1.04050652570285   -0.24780778803517
O          -1.78803182717665   -0.89067898156460    1.86809852159913
O           0.65531082810683   -1.02225494362371    1.83797302259940
O          -0.50638629108818    0.97198228421067    1.05773421273390
O           2.11718418908024    0.75717431428053   -2.20794107699903
H           2.80610135437750    0.14286770032676   -2.46555279512093
O          -0.41995008275468    0.07784447414361   -2.60012067742208
H          -1.00015981048181    1.18851302658489   -1.89580548251112
H           0.54040388960309    0.30523154870548   -2.61772099241607
H          -0.50443819765840   -0.54896345182550   -1.84454475297638
O           2.11286446398877    0.80456616937319    0.47135092315312
H           1.28130525337083    1.22510785168665    0.73719174385640
H           2.06214047339536   -0.04935995697441    0.92357962535692
H           2.15837344348374    0.81237163852350   -1.22528746752582
O          -0.63494884776381   -3.11972028458852    2.73002360419227
H           0.06811087020301   -2.51691564899881    2.40877782687038
H          -0.51411635913943   -3.19206681607006    3.67954851376775
H          -1.62958731218108   -1.80407299316561    2.18008902348352
N          -1.37169456345324    1.95234251440846   -1.16291457447589
H          -1.05923387701297    1.56604451216316   -0.20185306410860
H          -2.38294992511610    2.02547214857292   -1.19012822259767
H          -0.94136247005839    2.85672844859109   -1.32703847459624
