    23
        -45.36936411  Gyration_radius:  2.46308996548 Dipole_moment: 3.953
 S          -0.79677596804195    0.97101507172034   -0.30857070839934
O          -0.33895544035183    0.57911047554759    1.00765106702236
O           0.25404063157975    0.72566790498188   -1.31320504841917
O          -2.06960951590847    0.37439703630459   -0.67160420501402
O          -0.97377079828868    2.53357644588249   -0.31715146607600
O           0.95371614367079   -2.94780847568823    0.58990420998291
H           0.39562609828269   -3.56058465949503    1.07098654341953
O          -3.50629600716838    2.26672849213386    0.43013299984013
H          -1.85565846828762    2.68503967852343    0.07778623337458
H          -4.16469436657921    2.57639955304829   -0.19601585895895
H          -3.19418873639772    1.40025596251497    0.09433313697592
O          -0.60291145435116   -1.82223688930898   -1.27924793449185
H          -1.44214406993863   -1.44352309929734   -0.98279017266585
H          -0.12788848850537   -1.04008786004570   -1.59840264911172
H           0.39149791070022   -2.57949400269978   -0.13012472670858
O           1.76782879314081   -0.73365465872729    1.80951526873672
H           2.35890358839992   -0.11711466474994    0.65420450084209
H           0.92153941009309   -0.23276543191014    1.74490299864844
H           1.53802911531086   -1.63654794448837    1.48346358378409
N           2.60698531549273    0.38613601625552   -0.31763621467810
H           1.64124072190053    0.58215310025831   -0.76386987387166
H           3.14625764398239   -0.22737473474213   -0.92005167144655
H           3.09722796113247    1.26071268402294   -0.16421001276634
