    23
        -45.37152232  Gyration_radius:  2.43828859347 Dipole_moment: 4.158
 S          -0.45733603313141    0.68960611157425    0.88263035615839
O           0.12147147193702    1.20054536737867   -0.36534341366016
O          -0.38239478729858    1.82955382564602    1.94896807284596
O          -1.87047412863754    0.35893414708328    0.67370776015075
O           0.30411499248590   -0.42615720409928    1.40458951594037
O           2.74135986789794   -1.70904694172870   -1.29704771097313
H           3.52223327530006   -2.21354359651210   -1.06509909328598
O          -2.77524081425883    2.75169111061395    1.27472820386161
H          -3.40526141183204    2.71188189927152    1.99778819770217
H          -1.13787358294152    2.42887239687938    1.76942251757706
H          -2.68123079982385    1.83678502160974    0.93705589690599
O           0.35007765888649   -2.42243062338557   -0.40076527629493
H          -0.51823905617289   -1.55124124859558   -1.23811970906492
H           1.25678298921552   -2.29764646665003   -0.77533480597397
H           0.33745784573672   -1.87927637944832    0.41423848048216
O           2.61794618295975    0.40711911917814    0.30483766402851
H           2.78673631275833   -0.87584998966745   -0.76392597209049
H           2.00535221965579    1.00456267560210   -0.14947965704172
H           2.05473692511171    0.01629657558426    0.99282553056585
N          -1.10024495893681   -0.69467705804670   -1.61327527343057
H          -1.43690246564264   -0.79156840960601   -2.56513946499623
H          -0.48544327372864    0.14958496768258   -1.45047169554004
H          -1.84762841954903   -0.52399530038134   -0.91679013387873
