    23
        -45.36936450  Gyration_radius:  2.46347848195 Dipole_moment: 3.952
 S           0.27854238113092    1.09074226390788   -0.63918565816974
O          -0.71848253322775    2.07468447625779   -0.25799586242301
O           0.97604798357470    0.51835980918928    0.49285851569329
O          -0.27228612927037    0.02508450292047   -1.49647614164169
O           1.33937335752009    1.80485273842173   -1.55439246191380
O          -1.45822724921795   -1.93886095998598    2.01679893811016
H          -1.73206928351222   -1.63911331487448    2.88485726679882
O          -2.28627685089269   -0.07167803551733    0.28087401024407
H          -1.80982452001313   -0.23540243710453   -0.54719822067836
H          -1.81343413564258   -1.27770440899857    1.37890793188769
H          -2.05002933617562    0.84615056249801    0.47362775811487
O           0.96604842774061    4.07986274722003   -0.24029527613064
H           0.60555982834010    4.80711168230260   -0.75275297599082
H           0.21297451164297    3.48481325314526   -0.04076896994491
H           1.47117568370382    2.68234963878177   -1.14288994441565
O           1.12692239479847   -1.91978064663602    1.40781731187408
H           0.96658337617901   -2.25123025589430    0.01902194282065
H           1.21531722561188   -0.95081040207812    1.25092757652478
H           0.21216592135853   -2.02295314057589    1.76387548607755
N           0.75361245309616   -2.30270231299456   -1.08155380876872
H           0.34853280913327   -1.32721546565392   -1.31479165770422
H           0.06479418461826   -3.01918816678626   -1.28731464845779
H           1.60297948955790   -2.45737210771495   -1.61395114169532
