    23
        -45.37152237  Gyration_radius:  2.43827774463 Dipole_moment: 4.153
 S          -0.93698184826838    0.76264889602975    0.03875753301785
O          -2.00419581979215   -0.23759646628531   -0.06486469901136
O          -0.17787355733286    0.89539556306682   -1.18721131295747
O          -1.60259208146515    2.14954986383192    0.31336923339965
O          -0.06942399582395    0.44452804360294    1.17865655080388
O           3.38033243711447   -0.49864163636066   -0.66733224023132
H           4.10563893976435   -0.22959586816898   -1.23275894963745
O          -3.68255830491830    1.02573244432040    1.51401240889480
H          -2.35550494313583    1.98220460372084    0.91943898757693
H          -4.51141932100053    1.20594165054268    1.06474370152392
H          -3.21916995963034    0.34667238941812    0.98107201843143
O           2.06515860575553    1.68549919708443    0.08045877302167
H           1.54468283961673    1.39097610579345    0.84287477512519
H           2.98369907177835    0.33795931298692   -0.31625210620708
H           1.40531687526779    1.68952552778677   -0.63189751796155
O           1.11783262892914   -1.40483443303017   -1.71130790215849
H           0.45594929521654   -1.93962437206636   -0.49095075393894
H           0.63586526671482   -0.55361465891494   -1.76196017076859
H           2.02870653420486   -1.16354824742764   -1.41115938869213
N          -0.13542263808909   -2.02264302730106    0.43467734224292
H           0.11489827491099   -1.16624309171709    1.00054854776651
H          -0.02945002795773   -2.90012403635475    0.93221528796074
H          -1.11348826184957   -1.80016776055722    0.17486988179407
