    23
        -45.36936432  Gyration_radius:  2.46324297601 Dipole_moment: 3.951
 S           0.69789326953311   -0.89244095844647    0.62533163116557
O           1.91661956347726   -1.87969247066495    0.51148071750033
O           0.00520496618435   -1.17795301186793    1.86887554201204
O           1.31965295143291    0.44439504843985    0.61416759550280
O          -0.13513844614883   -1.07204839363201   -0.54491935872215
O          -2.39367072455033    1.95729364099079   -0.62366921806269
H          -3.30194233069305    1.69552139496359   -0.46581622346590
O          -1.02935255629497    1.31243352433213    1.59155726559670
H          -1.12781278408880    0.40890011759765    1.92240405069286
H          -0.09004190683112    1.34149577545527    1.35447722440130
H          -1.90961703441590    1.76936411748767    0.21330210574775
O           0.55462594402128   -3.73828513099142    1.82815773756630
H           1.57371659522806   -2.73525859696486    0.83876440795803
H           0.91648823557107   -4.00321593382401    2.67688432584129
H           0.11370943247264   -2.87517658120765    1.97495373872110
O          -0.95296438588892    0.58702017357752   -2.38431595390188
H          -1.59483504697441    1.12014720583092   -1.85701817866043
H           0.30199620499500    1.22609869150585   -2.09988913066284
H          -0.77351723624793   -0.20006610082695   -1.81899467415319
N           1.26857547977723    1.61388226757167   -1.68203914037334
H           1.35420827134400    1.12165659162567   -0.72257828505379
H           1.23272079758049    2.61964889062693   -1.55058218661702
H           2.05348073027744    1.35627973797849   -2.27053397346972
