    23
        -45.35981436  Gyration_radius:  2.32610872665 Dipole_moment: 5.671
 S           2.03488816144485    0.22102119031735   -0.64908431916802
O           2.36411450853384   -0.23371353502381    0.80229091551977
O           3.19246757833398    0.63565199823726   -1.34535659631934
O           1.23297571587153   -0.81460788236182   -1.25858571005949
O           1.12375452150637    1.45944539728390   -0.40213385793411
O          -1.34400664678545   -1.25547573765825    1.31086818030616
H          -2.19119036388542   -1.55128245484708    1.64562044484446
O           0.00310224503056    0.98159674289998    1.85810570798861
H           0.63806471276769    1.32765125973844    0.47215409306848
H          -0.56280805615279    0.18498656852446    1.74123241728873
H           0.76423089571819    0.70628830550291    2.37669916267439
O           1.06907715187660   -2.42183118775423    0.88384614170927
H           0.17209876744742   -2.15834005146406    1.17098944725138
H           1.04221858744672   -2.41341377009056   -0.08378638554637
H           1.93117939184118   -1.14267922605730    0.93358636260974
O          -1.46860062796686   -0.74062338575909   -1.19400755539880
H          -1.66709245481470    0.21683891169658   -1.32335778168257
H          -0.52354590585950   -0.83143313829864   -1.41179285983996
H          -1.47100350235824   -1.07942457697464    0.31959818393646
N          -1.64690168953653    1.96202175146111   -1.44692100274029
H          -2.12797375021789    2.48948222295803   -0.72922276826169
H          -1.91441505924075    2.34258755035124   -2.34583002942968
H          -0.65063417099898    2.11525302731855   -1.32491220081729
