    23
        -45.36936440  Gyration_radius:  2.46338591764 Dipole_moment: 3.953
 S          -0.61864030595340    1.11474080537164    0.22333174534726
O          -1.39047946183324    0.16251133782863   -0.59609525080970
O           0.28590070806611    0.40598398715719    1.10374577669498
O           0.04085947349855    2.13354127274123   -0.57341063519006
O          -1.70710257542147    1.82238564751639    1.11066759219247
O           2.17732601448350   -1.98084265273650   -1.13396753879817
H           3.10106735377559   -1.72958268710904   -1.17806669792382
O           0.99235526510170   -2.10145038445766    1.23992526889787
H           0.87844818897922   -1.13202344275760    1.37618372409880
H          -0.34050178946591   -2.30955332739683    0.74497179653320
H           1.54195285052977   -2.16603819828090    0.42261879201276
O          -0.20490764371639    4.00633103361454    1.24064291141363
H          -0.57502576696277    4.79586711033620    0.83931404830727
H          -1.28360983469773    2.65271350603183    1.40712814712110
H           0.12493552880980    3.45207077036189    0.50239848643963
O           0.79097534423814    0.06932682454133   -2.16359377134855
H           1.67802198937550   -1.24876190123870   -1.56407098587551
H          -0.13251138501797   -0.06269010797725   -1.90031308492193
H           0.97941145324473    0.94978697774791   -1.81048718852837
N          -1.36422392256605   -2.25818519470374    0.28843025247100
H          -1.43862614329273   -1.24073341820738   -0.07133767678281
H          -2.08504886076692   -2.43036706189224    0.98091365293007
H          -1.45057647044761   -2.90503089660377   -0.48892936434580
