    23
        -45.37137319  Gyration_radius:  2.42273676744 Dipole_moment: 4.865
 S           1.02523402693890   -0.40842371664825    0.54255311531732
O           2.23298056220259   -1.37819226108769    0.75270584434962
O           1.38031285865046    0.87718344292186    1.16483199715448
O           0.80474532139438   -0.24949138603027   -0.88766101317929
O          -0.12239555675155   -1.00877186923444    1.20371861076741
O          -2.94382615949416   -0.66003448129566   -1.65971834900403
H          -3.24716405182052   -0.87083694302153   -2.54399671628957
O          -0.92577167943993   -2.28138596115186   -1.07330507610891
H          -0.88738588277896   -2.30833472038643   -0.10818181081242
H          -2.27092417288678   -1.35041126339072   -1.43167907881300
H          -0.21070789296154   -1.65773482083533   -1.29522699451531
O           3.94609098375120    0.63307902371319    0.57738358401182
H           3.03941320908133   -0.84952820651541    0.57172067015742
H           3.06242323417257    1.01054023935615    0.75837296843859
H           4.47697301635098    0.79143212355629    1.36135014678860
O          -1.28659409514579    1.37288728259898   -1.28070443688225
H          -0.44206975404071    0.87484472793864   -1.33109282938650
H          -1.98531575221877    0.70830074138768   -1.50176528922890
H          -1.35542959559742    1.50818454851439    0.18677884189902
N          -1.16985076422422    1.38462209532526    1.27084428707762
H          -0.14495076981876    1.56498915995884    1.39363356082025
H          -1.20768706446842    0.36087336681266    1.45314076173049
H          -1.76810002088280    1.93620887751108    1.87629721563170
