    23
        -45.36936446  Gyration_radius:  2.46341657707 Dipole_moment: 3.952
 S           1.04426364519027   -0.76351264662402   -0.02888372982315
O          -0.09257573090831   -1.34081600388737    0.71152457787548
O           1.70719258587497   -2.00271029756662   -0.73445653195803
O           0.57136142816536    0.13812028029772   -1.05796627626411
O           2.03550436369771   -0.16300614628218    0.84537057125435
O          -1.80810570763024    2.48757803622905    0.70441677991517
H          -1.44908359827417    3.37603873844139    0.71555044825002
O           4.06714416278986   -0.79025642767657   -0.68352496789834
H           4.74716819206545   -1.21570115892674   -0.15625634503594
H           2.61537539170181   -1.70931672799536   -0.94856692552453
H           3.47506630731940   -0.33242614502498   -0.05040627996441
O          -0.09238668621430    0.96547547281328    2.09164939382902
H          -1.20335178696078    1.94548182036500    1.26169493738555
H          -0.30943706585834    0.04472452716570    1.88037215700591
H           0.84141085561483    1.01621155676182    1.84509517159515
O          -1.78821789975304    1.12326083617845   -1.57415346403088
H          -2.22530147560263   -0.12709687591866   -1.01758746801480
H          -1.88101364664656    1.74563904419911   -0.81371181461441
H          -0.83223749108002    0.88356193106004   -1.57257241474500
N          -2.36253528173240   -1.10610971472859   -0.48653603027050
H          -3.10601108227541   -1.04761747911842    0.20187499217723
H          -1.41532582728772   -1.26847806937342    0.00988586770693
H          -2.53890365257991   -1.85904454980746   -1.14281264930196
