    23
        -45.37152223  Gyration_radius:  2.43844698099 Dipole_moment: 4.156
 S          -0.95775456131598   -0.55918764258009   -0.48324598754174
O          -0.26954524154066   -1.77946446673740   -0.91686813928485
O          -0.29453718153727    0.61527301361189   -1.06094809235586
O          -2.41800709438288   -0.60799580775781   -1.03757469023881
O          -1.05749987283450   -0.45903089005696    0.95800409307736
O           1.22040476756201    2.38840875495590    2.22146628068967
H           1.06750045164281    2.80739831542641    3.06953949646575
O          -1.10566025233275    2.23536891779819    0.94554912661036
H          -1.36032989763740    1.34778334901815    1.24608642327427
H           0.36407361726654    2.45055030493498    1.72845648264973
H          -0.85326163123694    2.07716678334053    0.02361196174214
O          -1.68810444714027   -2.09722027803484   -3.10633170884860
H          -2.36225086381474   -1.00064931093514   -1.93480453765951
H          -0.99152475562752   -2.14616949310988   -2.41918071740562
H          -2.12075705190627   -2.95397792825716   -3.11741132764461
O           1.40293841945617   -0.25007186228737    2.02956606205167
H           0.46046909694322   -0.44338430713106    1.84557736958466
H           1.91199157138561   -0.38208125293270    0.63728855979701
H           1.43234224111228    0.72158449405434    2.21100765000521
N           1.96561998302583   -0.46843473971446   -0.45930556745996
H           1.47865336482303   -1.34957122228785   -0.70487352544887
H           2.89880878561667   -0.38928303386726   -0.84869512281757
H           1.27643055246710    0.24298828254844   -0.82691408924016
