    23
        -45.35981436  Gyration_radius:  2.32614222045 Dipole_moment: 5.668
 S           1.17831637660737    1.71117654980251   -0.54113321775285
O           1.83049514152272    0.42319573612652   -0.48787495723107
O           0.89310731005255    2.15349983865685    0.92333691038970
O           1.81879129830107    2.72946295318638   -1.28247215878712
O          -0.25909313832103    1.50543307766354   -1.10360688961765
O          -0.46918052927646   -1.39181474088249    1.71599907234656
H          -0.85170797272986   -2.17589749360931    2.11118628038794
O          -1.66000776630168    0.87030791313416    0.95226968949946
H          -1.31910167504514    0.00842166628973    1.28307194416187
H          -1.36920809079020    1.54068610182787    1.57683221816746
H          -0.86346774893992    1.23700853715215   -0.34179486390631
O           1.74456556977554    0.10942047689238    2.17569239662006
H           1.24680250347129    1.41934815452869    1.52898716175605
H           0.97278947318751   -0.49042051751476    2.20736267970404
H           2.23443662665825   -0.14349870094856    1.37998294780371
O           0.42824345821568   -1.88359072524746   -0.63090294355000
H          -0.26773479507428   -1.67874134107029   -1.29911487925180
H           1.06660609362471   -1.15136766970703   -0.70266726708255
H          -0.13265919114214   -1.66591246611376    0.79874899401237
N          -1.40867757451771   -0.94543206818359   -2.40451428089743
H          -1.32926533682294   -1.23155690948988   -3.37211260025315
H          -1.09529916268269    0.01783929602302   -2.33514357630958
H          -2.38875086977162   -0.96756765851600   -2.15213265021061
