    23
        -45.36936461  Gyration_radius:  2.46343200252 Dipole_moment: 3.951
 S           1.27024812125039    0.21273545213727    0.13009227595681
O           0.50607253903059    1.40869908075649   -0.26962919483722
O           0.61062012135626   -0.98796161272224   -0.33776676044814
O           2.63099472780350    0.35426652958989   -0.64533261504219
O           1.56541350953341    0.18565247429467    1.55122684782198
O          -2.97134860804908   -0.66817612435506    0.82276878742898
H          -3.16842577679679   -1.33433164038797    1.48288043361139
O          -1.04025058499078    0.87314909605031    1.86220918546998
H          -2.30185315944883   -0.07280316077671    1.23209525809374
H          -0.25900967572506    0.42506286774286    2.21446574722241
H          -0.66886369424670    1.38211068228898    1.12551995970542
O           3.87684880814503   -1.01048031430757    1.25906512302827
H           3.25386016852220   -0.22327652555761   -0.16034843208537
H           4.55046361593776   -0.53151341918778    1.74724226234493
H           3.01416564811626   -0.70909583644368    1.61400896967248
O          -1.73186872708463   -1.39557661803168   -1.41069943499109
H          -0.82577693564537   -1.48221317973698   -1.03281698135679
H          -2.30659636120547   -1.24100317475520   -0.62328924567344
H          -1.52340285480085   -0.06734729205518   -1.91731569741191
N          -1.21443662827884    0.98781004950724   -2.14198568704155
H          -1.99521791840597    1.62756579479679   -2.03620124753098
H          -0.81097763201445    1.06352383512821   -3.06945661004122
H          -0.46065872308372    1.20320304601268   -1.39673294389804
