    23
        -45.35981435  Gyration_radius:  2.32614563546 Dipole_moment: 5.668
 S          -1.32378639685769    1.49181117949250    0.79454870028886
O          -2.05447535059799    2.68676966090557    0.98127575885628
O           0.04249559537652    1.47293069172688    1.26357595295875
O          -2.05083022812249    0.26532802200049    1.41810198862218
O          -1.32273241173732    1.13241947603229   -0.72060222969626
O           0.96437931210690   -1.98658756132599    0.47495343140753
H           1.57847882973183   -2.70578214211267    0.32351841582515
O           2.00907195994618    0.26697004276905   -0.14575908896583
H           1.78123231516091    0.48959264407379   -1.07923706457352
H           1.44330516489098    0.84724748763305    0.39460806280243
H           1.44886279984822   -1.13386394107402    0.21444941772899
O          -0.11297650973211   -0.80753525304749    2.66921596633395
H          -1.37095444822544   -0.22074148204874    1.99464737829789
H           0.30466649283028   -1.39307797387437    2.00651506903288
H           0.36194611785017    0.03354640977988    2.60496640842189
O          -1.33338760474626   -1.43480199027944   -0.76380353362536
H          -0.48733943653493   -1.73720319320284   -0.36225266575908
H          -2.02512544350671   -1.61834790240344   -0.12203964939767
H          -1.31197524938613    0.12758448911777   -0.80927376960153
N           1.02578875978810    0.96220291379759   -2.58502235475095
H           0.14790639158631    1.31345187866307   -2.21508286442890
H           0.80713200620638    0.23193634202626   -3.25108066426131
H           1.47831734412526    1.71615017135128   -3.08622266551649
