    23
        -45.36936452  Gyration_radius:  2.46346226413 Dipole_moment: 3.952
 S           0.74049420399368    1.05570225019904    0.11861817585013
O           1.02251679425626    0.26697694921390   -1.09480042898937
O           0.93077436457956    2.54652846896430   -0.34415171563586
O          -0.63892977969199    0.88455816441211    0.52309166542569
O           1.68620145860032    0.79499087614914    1.18879097127604
O          -1.18148359484700   -2.85321418730178    0.64209283208631
H          -1.33084110367224   -3.13868199474599    1.54462295933485
O           1.29048654889661   -1.81818222181918    0.57969348221888
H          -0.25311225796774   -2.52544938497089    0.61313825543482
H           1.35683069666777   -1.31313068212902   -0.24493703683712
H           1.50643215095175   -1.15055794616384    1.24522328809211
O           1.62191736385375    3.24093223375608    2.12226029041928
H           1.69146508266989    2.26584809366516    2.04855183718337
H           2.51810263184601    3.56681032032921    2.23223968545109
H           1.07137388256770    3.04721312883030    0.48423303980087
O          -2.51082159624012   -0.74585455047547   -0.27797957662083
H          -2.16910257394450   -1.59194736553805    0.09816615735179
H          -1.97815184769829   -0.05033450260694    0.17359433274173
H          -1.80518957165869   -0.64549025164024   -1.52556352484260
N          -1.08070884212634   -0.50273762063742   -2.37054223604924
H          -1.41575190379552    0.19169339174081   -3.02954366676031
H          -0.88992507882612   -1.38187690116587   -2.84053567771726
H          -0.18257702682518   -0.14379624949683   -1.88626310010881
