    23
        -45.37152241  Gyration_radius:  2.43833121151 Dipole_moment: 4.157
 S          -1.07514347907590   -0.27998955664120    0.47558419253238
O          -0.64193476902567   -1.43757458250891    1.26458498006014
O          -0.70512162694899   -0.47318240273735   -0.93123850232778
O          -2.63363774914261   -0.19929317564163    0.55570938370550
O          -0.56149661387100    0.97067928586612    0.99416619502045
O           2.05462026341179    2.40894804517425   -1.44955942931173
H           2.27433305165865    3.34167092936579   -1.44965542779176
O           2.12280720955727    1.00206354842102    0.79647939662004
H           2.23194861874895    1.57299637754732   -0.00370756740911
H           1.18882518350188    1.12249047715538    1.06592813531132
H           2.00110483937996   -0.37790101816055    0.25393479367127
O          -2.85150703708844   -2.81678900494867    0.91667668647245
H          -2.96210169374241   -1.12338608374290    0.53279071652574
H          -1.93083628863884   -2.54558550224474    1.11337530283689
H          -3.25517535171081   -3.04164959041932    1.75799028127843
O          -0.59247749195671    2.18418627724333   -1.41174663446898
H          -0.74891688713179    1.26955998252020   -1.69090148417671
H          -0.70462649196435    2.12898809128948   -0.44877753667182
H           1.07076261840072    2.36050695547538   -1.55071248015659
N           1.58993315416742   -1.32630453091563   -0.12657228298248
H           2.27425626424462   -1.95858081728304   -0.52738617719071
H           0.81420026564615   -1.04543984859451   -0.78687898963115
H           1.04018404156843   -1.73641386629434    0.64991644805968
