    23
        -45.36936436  Gyration_radius:  2.4632652473 Dipole_moment: 3.952
 S           0.99778659980468    0.78013225791403   -0.26375738858264
O           0.50833769747747   -0.33614588536220   -1.04477895325843
O          -0.11818537239387    1.45708422706534    0.42195580642739
O           2.07340332967477    0.41628467207089    0.64083288179973
O           1.54770992662573    1.86652626460481   -1.25892243159000
O          -1.62264827970401   -2.35164632794921    1.33783894547340
H          -1.21499953610696   -3.20268802164356    1.50492608852025
O           3.96661005915050    0.78243798971179   -1.13130250837163
H           3.44132688742907    0.44680061061055   -0.37471088691107
H           2.45442128857475    1.56923598839516   -1.47386290758076
H           4.65586323038920    1.33511745315299   -0.75588943886715
O           0.09316289330928   -0.50422351521085    2.24800224157776
H           1.01039239155319   -0.56850242713395    1.94796587382573
H          -0.18696924071461    0.34222706142408    1.86792763582313
H          -1.01396547527062   -1.68062334882621    1.72427965565743
O          -1.82362160670950   -1.49819495399042   -1.16910728450500
H          -2.28971807195330   -0.17615735951471   -0.85443803517056
H          -0.88358858888571   -1.22693472304235   -1.28810901462359
H          -1.83397181890438   -1.94916628978548   -0.29116588354043
N          -2.44426937416976    0.88714617298950   -0.53063350447532
H          -1.47718335049774    1.18705243965290   -0.14997612254170
H          -3.13818487486407    0.94738424468651    0.20758807780130
H          -2.70170871385687    1.47685348006640   -1.31466284705331
