    23
        -45.37152250  Gyration_radius:  2.43844554584 Dipole_moment: 4.150
 S          -0.85575663945697    0.83090051537718   -0.20126182050090
O          -0.45979238220904    0.15202206248393   -1.41760093596337
O          -2.33261887217364    1.30018214739749   -0.40280148311194
O          -0.82257783374631   -0.07142682568696    0.95545321754702
O          -0.03868915413721    2.01736741990849    0.07317190052893
O           1.16622034785131   -3.23483998434487   -0.53956439123384
H           1.20903882568369   -3.94863396461496   -1.17744283129871
O          -1.30464524879503   -2.25817689665216   -0.55716033328786
H          -1.16132867002733   -1.55383632487416   -1.21006252361911
H           0.21305890830329   -2.97157111751938   -0.48869091279931
H          -1.36184027992313   -1.76178889905821    0.27306392949189
O          -1.98186208680549    3.41107636790575    1.16280016923589
H          -2.48629713275286    2.02281925821561    0.24252693691172
H          -1.10512875719484    3.07345319314211    0.88486816541934
H          -2.11350630199531    4.24139185558472    0.69957677784676
O           2.04087640976450   -0.80874023578528   -1.15459362062745
H           1.84380872840858   -1.76179255360592   -0.97890673162002
H           1.19741958046182   -0.43323332406892   -1.48168611608715
H           2.03402322860247   -0.17739946888691    0.19272697074355
N           1.71623963704541    0.35012544515391    1.10591450390586
H           1.45923392518310    1.30987001306939    0.81179925909504
H           2.38058399270692    0.31637981962032    1.87160717795008
H           0.76353975518617   -0.04414850277371    1.33626271147138
