    23
        -45.36936445  Gyration_radius:  2.46339252683 Dipole_moment: 3.953
 S           0.54979389151128   -1.11479646754798    0.35951844960580
O           0.02451206943332   -1.12986450197532   -1.01806849405000
O          -0.20396142621611   -0.18833083508680    1.17751017878358
O           0.27127912500384   -2.56925895936555    0.88862746191515
O           1.98258732856244   -0.88661646520125    0.41050170065489
O          -0.23722618889333    3.05037187579746   -0.76981317622586
H           0.26693934682613    3.72053219510059   -0.30604239243066
O           2.35732200578469   -2.39320431396280    2.51960491755365
H           2.43736261289224   -1.68714909206950    1.84426294906203
H           0.88255566008556   -2.67935533343318    1.64421479459025
H           3.07533551294449   -3.00792917998858    2.35222766488534
O          -2.00405748883796    1.60490546687586    0.58763865651817
H          -1.43418354633736    2.27423658841856    0.13883499394965
H          -2.30574780436324    0.68189933057713   -0.47126038693506
H          -1.36261376582104    1.00659437663765    1.03706284913039
O           1.49170963041037    1.09370563245726   -1.37590357287220
H           2.03747731063325    0.74832183990610   -0.65600532742392
H           0.95868553646058    0.32082361690497   -1.61669433128905
H           0.41333804739780    2.36131004107454   -1.03825827348320
N          -2.33170327279393   -0.11408840513834   -1.26184166050343
H          -1.36755035582107   -0.59715642556237   -1.17724329796392
H          -2.43284217056919    0.29210594934948   -2.18642870686892
H          -3.06901207829421   -0.78705693389083   -1.08244499657999
