    23
        -45.36936437  Gyration_radius:  2.46331324616 Dipole_moment: 3.952
 S           1.23748772554397    0.32269042648418    0.19603455454411
O           2.04858318277482   -0.64436461826398   -0.52127705997142
O           2.19856754991380    1.41757837448070    0.78806502349559
O           0.26576555709834    0.98746686324315   -0.64624419458141
O           0.58043648998097   -0.25441641627557    1.38311397678172
O          -2.48725413677875   -1.54746858751103   -1.17197057009666
H          -2.51399099108953   -1.81786264953948   -2.09094970398868
O          -0.08689329477614   -2.29125510020927   -0.23900946468962
H          -1.62674404937863   -1.87280897914043   -0.82021241580095
H           0.68796526278387   -2.02459917170031   -0.75270882869825
H           0.04523259475680   -1.81227124138673    0.59316805346060
O          -2.34179432258048    1.04295166740733   -0.60424979707888
H          -2.13537068438495    0.88878857991029    0.80919613192078
H          -1.38657877070270    1.16675315345814   -0.81317828167036
H          -2.53448946035160    0.12104799152308   -0.89952070821506
O           3.84601232757934    1.10730901458143   -1.26904479693353
H           3.24659749183266    0.33219550676992   -1.23829612661480
H           2.85910288979743    1.57442912958357    0.08390076920735
H           4.72279697851037    0.77747287486657   -1.05955947511731
N          -1.77191424428856    0.68861694339679    1.85186210812156
H          -0.76523782418139    0.31881636047709    1.71064496583033
H          -2.33809301442830   -0.02044572702096    2.30659975993009
H          -1.75018723797476    1.53937559490343    2.40363610019966
