    23
        -45.36936441  Gyration_radius:  2.46338471504 Dipole_moment: 3.953
 S           0.57695515599342   -1.13467918359051    0.23378264773491
O           0.80262916593130   -1.21007521299393    1.66588042190962
O           1.00533817690938   -2.50969850650328   -0.39761522108080
O          -0.80787259567194   -0.89433818372760   -0.11269164013580
O           1.45156743847314   -0.15000103642475   -0.42908190683953
O          -1.37909446235896    2.77599487019086    0.58615088261723
H          -1.99070831984379    2.88209459550519    1.31628223340802
O           0.28437968548393   -3.77237921144155    1.82235033659168
H           0.36901403121411   -2.81760699819264    2.02796536738160
H           0.68926172813633   -3.18307428827929    0.23750852822845
H           0.98852489587182   -4.21415936187921    2.30241005641597
O          -1.98579028946567    1.07166050120798   -1.35834543323991
H          -1.90733305257989    1.77688589399096   -0.67226043811880
H          -0.72332225792410    1.14875485079126   -2.03994857925663
H          -1.76698234541622    0.24122062364503   -0.87475005709185
O           0.75973237984229    1.49981474412570    1.57685411436983
H          -0.57351070053770    2.35731223806203    0.96806353237996
H           0.59661401101053    0.68784560738440    2.07636580138143
H           1.26230911044947    1.17318151796180    0.81512207867217
N           0.34126807727165    1.09906858876037   -2.39128377100904
H           0.41607895616574    0.59578193266446   -3.26871020882908
H           0.84823130004690    0.54880570407311   -1.61005367363714
H           0.74270990096390    2.02759032493373   -2.47399507174911
