    23
        -45.37152233  Gyration_radius:  2.43848689427 Dipole_moment: 4.152
 S           1.18260898603416   -0.25505064453907   -0.02624376395296
O           0.59724216818348    1.04113456668875   -0.38764770063241
O           0.37846059062824   -1.35641961843346   -0.51344803822577
O           2.57580941930927   -0.36489818667540   -0.72553281005075
O           1.39919956191674   -0.31338454153979    1.42294221919023
O          -3.07260444765353   -0.04489536372054   -1.63882834904633
H          -3.61347428978482   -0.53833438758148   -2.25694384410012
O           3.81510367891475    0.71858766604884    1.35304659060805
H           3.20558194682597    0.14559202570008   -0.17318112805545
H           2.93165242371026    0.40563023150272    1.63839530461969
H           4.45620489800615    0.12604096225065    1.75207302476646
O          -2.09726059336812   -1.21099084954411    0.53331433928557
H          -1.60466630051882   -0.02032771554774    1.27714746798083
H          -2.59036938937412   -0.83319585507377   -0.23626152410823
H          -1.23807909555919   -1.50181462659587    0.16365876177968
O          -0.59659129850906    0.04607575108062   -2.59829536221001
H          -2.19197521885908    0.06847548438005   -2.07709097835707
H          -0.18231491173784    0.76564783135382   -2.09868745641637
H          -0.25321016363457   -0.74287371557553   -2.14837067286493
N          -0.97326447192883    0.80485336397684    1.64271928064052
H          -0.14796466652505    0.36367673722549    2.08737056305155
H          -1.45003616725095    1.47823240942964    2.23262408847836
H          -0.53005264881931    1.21823847518891    0.77723999761687
