    23
        -45.36936437  Gyration_radius:  2.46336721497 Dipole_moment: 3.953
 S           0.76825945398604    1.04072304016543   -0.04116078137002
O           0.91939301814560    1.40192639653665   -1.43917522992575
O           1.14038793107130   -0.33043672396166    0.23642101788674
O           1.70269550795901    1.97988853318120    0.80595456491006
O          -0.58349031037415    1.32175860424330    0.47626359633776
O          -1.74175859723718   -2.41458021073947   -1.04197037314688
H          -1.46135591970007   -2.94155773809937   -1.79171675404145
O          -1.46060835190237    0.14772290646034   -1.77705746505694
H          -1.50156587619512    0.67326736296706   -0.96369147298922
H          -0.60537652654340    0.40908427552817   -2.14545320347523
H          -1.68929359335785   -1.47638643987988   -1.33726366090967
O          -0.21995740999772   -2.36715656371558    1.13419372208958
H          -0.78686148968324   -2.55099528238941    0.34742812517313
H           0.47580127695227   -1.75901228754035    0.79153866595918
H          -0.95097014173961   -1.33744250116729    1.81988535395410
O           3.43307832483674    2.09737225314722   -1.20262896483791
H           2.52265363118975    2.05516247676995    0.27801122361462
H           2.58020426319839    1.76477901168136   -1.55329330673166
H           3.56530831514160    2.96361881430549   -1.59445311385135
N          -1.43669747774377   -0.39830996115373    2.19558512151671
H          -1.07983243993788    0.36792754433748    1.52053170916629
H          -1.14191910043685   -0.18508380820427    3.14237594472074
H          -2.44809449550734   -0.46226971347978    2.13967528185084
