    23
        -45.35981436  Gyration_radius:  2.32613911843 Dipole_moment: 5.668
 S          -1.40202115508784    1.49371309077620   -0.64254032806562
O          -1.83163625286780    0.11443762719229   -0.63180073350407
O          -1.30973579471107    1.96782406394179    0.83676758747745
O           0.08891685146208    1.53509202708447   -1.09003246541057
O          -2.14417234837504    2.39534755607418   -1.43813303605800
O           0.56003350370659   -1.30517580616596    1.75637768420439
H           1.03632801042242   -2.01682102650021    2.18531134627335
O          -1.90250684748861   -0.19806427575038    2.03227971306527
H          -1.58179256082166    1.18089799166356    1.41781645553398
H          -2.27955832005830   -0.52404896883497    1.20241440530892
H          -1.04616839729253   -0.66063365905494    2.12802734601287
O           1.41181190342023    1.12911152307929    1.07279477106707
H           1.19499693445697    0.22023101196987    1.38169569571144
H           0.66845389932945    1.36625315262279   -0.28176148812266
H           0.96546562816597    1.73737000878278    1.66847970860374
O          -0.05688478453562   -1.92465465590776   -0.65003970604867
H          -0.80106549960206   -1.30892721045009   -0.77613649956655
H           0.64503177605272   -1.60193364522153   -1.26323166415574
H           0.34652730379524   -1.62567458141414    0.81755245574694
N           1.72997979459717   -0.68066972124526   -2.28089657613899
H           1.77559500295202   -0.96971816841282   -3.24981931138227
H           2.67711596802588   -0.54002548021865   -1.95241625465811
H           1.25528539445434    0.21606914598752   -2.24270908589365
