    23
        -45.37152220  Gyration_radius:  2.43823857225 Dipole_moment: 4.153
 S          -0.72033766111900    0.67571240268973    0.69757519878210
O           0.53051409829191    1.34271853869850    0.40178799928198
O          -0.53906911384767   -0.77341412179007    0.83803592543844
O          -1.21961325217714    1.23326029877279    2.06939016164512
O          -1.75560886177263    0.95014513691699   -0.30440743937988
O           3.18367110028392   -1.27075725029076   -0.60578192357256
H           4.12104940078611   -1.08358990797126   -0.53734634726739
O           2.02195916904363   -0.51531757627700    1.66102032058773
H           1.16949225393105   -0.97588090473396    1.64668110722367
H           2.80270646472615   -1.08529141805139    0.28911539922332
H           1.77655387339640    0.38365168471697    1.38801779646585
O          -3.76179221378177    0.90111244481704    1.39256080265410
H          -3.21292399387499    0.88464037668050    0.58119224330237
H          -2.18295429550061    1.05287249182128    2.10953219555392
H          -4.25072930500834    1.72688189798301    1.37418796719745
O           1.55700453097257    0.38020824922890   -1.89289038274223
H           1.28867827434987    0.93530780358072   -1.13178238745223
H           2.24941592763744   -0.22731385804769   -1.53279616339213
H           0.33195337046641   -0.46051406291096   -1.97166773717396
N          -0.62627524273306   -0.94838014092517   -1.73294407033318
H          -1.32432171167070   -0.18737284868627   -1.64335333290954
H          -0.53929858671231   -1.25104833997320   -0.72496834616417
H          -0.90007422570008   -1.68763089624564   -2.37115897695291
