    23
        -45.36936444  Gyration_radius:  2.46330016996 Dipole_moment: 3.952
 S           0.30303896813823    1.24657125578340   -0.17247801507658
O          -0.48430001433621    1.72411737522549   -1.29483277862387
O           1.07958045051740    2.47320939095466    0.43185563040074
O          -0.50124445437008    0.66259840926593    0.88003050161250
O           1.37038731016706    0.31511146668646   -0.58134878070647
O          -1.49077438037240   -2.74911994361946   -0.40872557296901
H          -2.43605356053358   -2.78388305087775   -0.56226242061683
O          -0.90718234814189    4.09151432921531   -0.25814030500195
H          -1.00658142730564    3.25497919547265   -0.75951431133277
H           0.43773737691082    3.21077994426377    0.40400491619761
H          -0.69300672439366    4.76829855097812   -0.90431037098189
O          -0.52777125666926   -0.87531000435213   -2.06599183524752
H           0.36327851843564   -0.66077412300565   -1.75050439334826
H          -1.13559235901582   -2.09985866537394   -1.05882320320165
H          -0.96183363468474   -0.01111064994006   -2.05333214760994
O          -0.59685244726500   -1.74407603663904    1.88137529976213
H          -0.73525540236885   -0.79213612469853    1.66679298040270
H          -1.01604902997432   -2.22346093992481    1.12726345015582
H           0.79491941082416   -1.74538271209136    1.52499644882831
N           1.82244759955428   -1.58130774022425    1.10466261649712
H           1.69211950951913   -0.76354134133009    0.40877825841657
H           2.15079152629016   -2.40462074590522    0.61019672827762
H           2.47819638068328   -1.31259783832494    1.83030731189264
