    23
        -45.36171550  Gyration_radius:  2.47646990296 Dipole_moment: 1.796
 S           0.61148412971909    0.21468226046133   -0.55563054289767
O           0.38547842246732   -1.13938955342273   -0.12061084258686
O          -0.57210302178373    1.03330022852240   -0.61990221488935
O           1.63067815706930    0.89613240552429    0.36267084217513
O           1.30664378470778    0.20303832132718   -1.92374901290295
O          -0.04281881154489    0.29047373935440    3.54735803416569
H           0.08134434946350    0.70833070921289    4.40115918714801
O           1.86598311770617   -0.85389590365974    2.11877220347667
H           1.36755981061904   -1.46143703116318    1.55205560089166
H           1.87215578619611    0.21746036490953    1.12562953456620
H           1.20883914157523   -0.51169159264784    2.77526472679888
O          -0.48946399138547    2.26183883845812    1.77703289006377
H          -0.31601098074874    1.00273135153777    2.92620588559528
H           0.35894328410426    2.69341698203453    1.64773031841131
H          -0.70546340018096    1.86812641222516    0.91233048584773
O           0.16599048670315   -1.86883633506393   -2.78500365671462
H           0.18796768416222   -2.26464094562219   -1.90509021972214
H          -0.74109397075586   -1.45891103082185   -2.86284296936899
H           0.95259788727354   -0.62759151560912   -2.41855611700428
N          -2.09705913767805   -0.48760812922812   -2.57255394181241
H          -1.70665954661053    0.13918955845919   -1.87014992502733
H          -2.90852264026779   -0.93539755859226   -2.16490815790931
H          -2.41647056076567    0.08067842385677   -3.34721211827915
