    23
        -45.36171548  Gyration_radius:  2.47667223265 Dipole_moment: 1.804
 S           0.46659052547785    0.62323814591241   -0.34947251081569
O           1.14946258714223   -0.14090961238408    0.66294294126889
O          -0.54419143800287   -0.10298684529537   -1.07385262000615
O          -0.14795838863655    1.86499132292990    0.30390619907931
O           1.48795187921920    1.20121743417523   -1.33813494598063
O          -2.84193330538585    0.22672359037406    2.13282681219723
H          -3.37226738404276    0.54212208655602    2.86651014599116
O          -2.55640807512879    1.46367394612855   -0.18778070913103
H          -1.17744242823263    1.85116719393074    0.10339177069428
H          -2.29453313283223    0.74171775314512   -0.77845478758431
H          -2.82067805152810    1.02463435518213    0.65899122089144
O          -0.27010436626465    0.51303583185007    2.85827708027969
H          -0.09289643436612    1.45656545061854    2.82522136794732
H          -1.90853960637391    0.22845357455605    2.44336866007182
H           0.29976617456686    0.12592600568376    2.16926012174920
O           1.37785461632244   -0.70347274535136   -2.97933054350962
H           1.81475474478254   -1.37558255231626   -2.38372465085926
H           0.43125162959148   -0.80535213798442   -2.82135271552753
H           1.55139275520151    0.52537839984780   -2.11272596100499
N           2.30539836076683   -2.22253975659424   -1.00372456434306
H           3.30362319964944   -2.32413272716732   -0.86823770529941
H           1.87972357886562   -3.12685577834755   -0.84171989920725
H           1.95918253918677   -1.58701293537310   -0.28618470689034
