    23
        -45.36171542  Gyration_radius:  2.47653614219 Dipole_moment: 1.798
 S          -0.48666076774374   -0.62179726881359    0.32681327422031
O          -0.53240239233594   -0.51333621546051   -1.10894399478558
O           0.56954810451541   -1.66432065089840    0.70687608786427
O          -0.22770900430814    0.61527526209143    1.01702521883751
O          -1.79798283864072   -1.22995403533881    0.84159781657336
O           3.54628411675846    0.26557061164280   -0.13847735243838
H           4.44881611804718   -0.02135672704145   -0.28719304485344
O           2.12336171906895   -0.23941970187886    2.03323296825426
H           2.77041211056544   -0.00399042049152    1.32217069450381
H           1.45875597050998    0.46534944824337    2.01720154874089
H           1.26279622702676   -1.19590782343743    1.33943164333264
O          -2.96879515585575    0.96090719253091    1.24492235346773
H          -2.14270699470605    1.36686312012066    1.53515113318415
H          -3.05508386325982    1.20814896721753    0.28123092802766
H          -2.40901553655568   -0.43568892925629    1.07930960416321
O           1.98927335683193   -1.19635425091957   -1.76913173017392
H           2.99466726828138   -0.19029740867410   -0.81349189326700
H           1.96628239288537   -2.07773814888891   -1.38791674251613
H           1.07293032787251   -0.87120362648417   -1.70603923826173
N          -2.73932611443784    1.35940729281382   -1.37421713567711
H          -3.46055702969407    1.02847428250245   -2.00307541163150
H          -1.94637179802003    0.72397811489283   -1.45196230567570
H          -2.43651621682474    2.26739091551466   -1.70451443189271
