    23
        -45.36171552  Gyration_radius:  2.47666839263 Dipole_moment: 1.800
 S          -0.15568531024542    0.82967974767845   -0.13058128632908
O           0.22253263021030    2.26790507263517   -0.50873257844923
O           0.74045750265994    0.35029287001442    0.88969678236167
O          -1.57173888833880    0.96515482143104    0.43794722194367
O          -0.21059858051392    0.01433382023084   -1.31686161124124
O          -1.95934731482165   -2.42868045645834    1.71347363919319
H          -2.75056864920873   -2.90940744662107    1.96222509859449
O          -1.23829797333160   -0.07331797795907    2.67723312782301
H          -1.52947761513248   -0.99629363865805    2.46988232327456
H          -0.28289552827473   -0.06493937950581    2.51672708258084
H          -1.54965913254949    0.61811890542163    1.42745763229220
O           2.70262645566298    1.98435775022799   -0.18892744159739
H           2.55408167740149    1.40009522309310    0.56471683292176
H           2.83623289595974    1.37449961277199   -0.96827490507475
H           1.24564477162143    2.33114455723915   -0.40921310415300
O          -2.35188049051430   -1.53463466413546   -0.79018529919409
H          -2.06049068316603   -2.20001648525185    0.76208080959780
H          -2.98773240218348   -0.81857412607674   -0.71493500991642
H          -1.53360953377872   -1.11182614737215   -1.10798941060166
N           2.56896609925188    0.19157903623208   -2.14861521883346
H           3.06041288009054   -0.68707306916120   -2.04097398755439
H           2.67171253263365    0.48516598241321   -3.11210534336506
H           1.57931466658897    0.01243600175469   -1.98404535425218
