    23
        -45.36171548  Gyration_radius:  2.47660248427 Dipole_moment: 1.800
 S          -0.05783620678351    0.64261613563639    0.55871681903819
O          -0.39210591227405    2.07616005731227    0.99227132286372
O           1.14641197802713    0.64265456968770   -0.23181263077202
O           0.22263824696268   -0.07922268646034    1.88050284319170
O          -1.20381711864493    0.05744318905174   -0.08789500215666
O           0.43235204444481   -3.48329934110009    0.59354944120723
H           0.80749183131889   -4.27183984882511    0.98914490977855
O          -1.90378134382945    2.59744627097872   -0.95128285763429
H          -2.24318689111243    1.69401733587029   -0.95003219003103
H          -1.04354018922219    2.44514401479173    0.28515903407211
H          -1.18230475605026    2.60317601547252   -1.64177605062805
O           2.35030443875488   -1.60177335620373    0.64941930577328
H           2.03230398255262   -0.80996754326612    0.17908677973958
H           2.42265352685542   -1.33161042800719    1.56844182951489
H           1.16798198920920   -2.83508014843902    0.51391676940722
O          -1.41309700075419   -1.94934233270103    1.70599242202569
H          -1.80700931310659   -1.50651046685241    0.93955116269431
H          -0.81932016298033   -2.64532459403581    1.32815216957669
H          -0.46548901879188   -0.86659693671742    1.96300120279442
N           0.24128064316814    2.24369911072362   -2.48255728798203
H           0.85627288894669    3.02281515861025   -2.68227177901867
H           0.15029428827076    1.69875009306753   -3.33106615278232
H           0.70150206506019    1.65664573134387   -1.78821206065692
