    23
        -45.36171547  Gyration_radius:  2.4766400636 Dipole_moment: 1.799
 S          -0.54977130090468    0.45373046466244   -0.47088600487410
O           0.08613890909441    0.97645432035070    0.71072310966761
O          -1.88209221264296   -0.20531970513124   -0.10049205287931
O          -0.96156735517578    1.61460884147369   -1.38596139869433
O           0.24261375036305   -0.49246954108645   -1.21392081453148
O          -0.64262861951827   -2.51597936631853    2.43441526396490
H          -1.04861135986009   -3.29926477616125    2.80944239180917
O          -1.73476833859949   -0.10753485772272    2.38391980843943
H          -1.97589589269679   -0.16366980237313    0.94336154594966
H          -1.36620444254389   -1.00952040456505    2.55791462847448
H          -0.96271975406357    0.47105562022644    2.29524297916195
O           0.98683773115986    3.10408604295611   -0.82165118449625
H           0.97082358290640    2.80387119850437    0.09542640358105
H           1.67883165978059    2.53909645792755   -1.26801548871769
H          -0.25008757890663    2.34809336759319   -1.25717315692168
O          -0.67317378080423   -2.82947372673842   -0.23409068433511
H          -1.58787897173670   -2.70788809686238   -0.50103081501580
H          -0.19090727282786   -2.08919659618868   -0.64495106164300
H          -0.55465677924421   -2.68345130001389    1.46902541414322
N           2.51656170690439    1.19612912023716   -1.86633338701538
H           1.81380019907948    0.47587910888396   -1.70510902508106
H           3.35653838638638    0.91901366586060   -1.37355981870794
H           2.72881775383337    1.20174996449068   -2.85629664225856
