    23
        -45.36171527  Gyration_radius:  2.47672730013 Dipole_moment: 1.793
 S          -0.80553640307121    0.04488632635402   -0.28313591481823
O          -0.60196617902674   -0.85779376035949    0.82097592022532
O           0.33617281486846    0.20950116120256   -1.14525598617430
O          -2.01118314293822   -0.41642359890819   -1.11253863876176
O          -1.24464016428884    1.40494702568748    0.26841560067278
O           1.94455216791784    2.44392777896505    1.70858828757636
H           2.13757949629402    3.12425197322627    2.35577007692876
O           0.06449416261344    0.85759352381950    2.78890232600637
H          -0.09465397427517    0.10485541119441    2.19102055177975
H           1.34165826129981    1.80369649003388    2.14957630328429
H          -0.74990241577617    1.36668471920945    2.76859515035636
O          -0.69414760797308   -1.80088251093849   -2.75056031897828
H           0.02937720674309   -1.16258946344506   -2.73116105225992
H          -0.43324428721840   -2.50907851274615   -2.09671267609115
H          -1.63159741804186   -1.00263521113920   -1.86920057445233
O           0.62746510134099    2.82781328751389   -0.55225194462162
H           0.92593411585197    2.08555763247665   -1.09871218171841
H          -0.55841289005485    2.12126760929974   -0.07309437903944
H           1.20675889211187    2.81048956421239    0.25032710700486
N          -0.00216870624459   -3.28788575243911   -0.65697086094845
H           0.96453210286614   -3.57185506788780   -0.55687972840508
H          -0.58231218982660   -4.06883469755309   -0.37643613660203
H          -0.16875897321029   -2.52749391774785    0.00073905908034
