    23
        -45.36171545  Gyration_radius:  2.47660572043 Dipole_moment: 1.793
 S           0.02395220654950    0.84547431479010   -0.11018207039674
O           0.58143894646035    2.15196007164635   -0.69079087520577
O          -0.24823916982810   -0.07809945362419   -1.18105482035034
O           0.91588662123608    0.34624090423981    0.90489621944607
O          -1.28689208037079    1.27531148379931    0.55576010524719
O          -2.59298731664972   -2.04021269721157    1.33794157042309
H          -3.28136498784532   -2.30519131182126    1.95027253574061
O          -2.87752875928352   -0.25733741378683   -0.59448634317258
H          -2.16888234190090   -0.49947756680215   -1.20919625338713
H          -2.90574266228439   -0.98877648504371    0.07194493570300
H          -2.06428274571725    0.73879752641577    0.09906234528338
O           1.82810862434641    1.08564667171129   -2.59956567278019
H           2.51785364254587    0.64021040461320   -2.03153054603163
H           1.12961830936466    0.42858255779300   -2.70817384910353
H           1.12391987967299    1.88708054306513   -1.52499128891063
O          -0.83520001754168   -0.56729864351654    2.73803138850239
H          -1.89747440254736   -1.59863254623026    1.87552233952358
H          -0.07632235082693   -0.35176732320706    2.16619985089799
H          -1.27029347230455    0.27369171017140    2.89981298399577
N           3.27206827511063   -0.13454560898528   -0.72866644025722
H           3.47681405131925   -1.12071511383646   -0.83178831886028
H           2.53481928848028   -0.04500327467469   -0.03073346271479
H           4.10073046205303    0.31406122045134   -0.35828433356756
