    23
        -45.35981436  Gyration_radius:  2.32614741165 Dipole_moment: 5.668
 S           0.70667121718132    2.02730384932892    0.01497707452414
O           0.69956570903525    1.83510926169630    1.55921873548281
O           1.56486451561517    1.00982680105362   -0.54656486029406
O          -0.76488579304631    1.68418851528983   -0.36137123590094
O           0.97132511545393    3.36740148722962   -0.34666878388348
O           0.19131755188051   -1.98022009381751    1.06964722425392
H           0.05252783247201   -2.92224641183460    1.17262863682264
O          -1.51610687365701    0.03324276998475    1.45594560088763
H          -0.96422471004099   -0.77609243492579    1.36163170615330
H          -1.20755015143060    0.48787398419396    2.24471317840483
H          -1.11911879408344    1.02136911061417    0.31157780346386
O           2.15869296470220   -0.23982212507012    1.75256195338004
H           2.48519211537353   -0.06339746589058    0.85848731630219
H           1.30580200842488    1.04645123925641    1.76261546087919
H           1.53078569500818   -0.98359887884080    1.65783772715942
O           0.58688235849812   -1.36702012838552   -1.38448083038130
H          -0.27045243636784   -1.11829599977697   -1.80395701522160
H           1.05493536815636   -0.52288454943821   -1.25339765160695
H           0.34634820002842   -1.81790901618160    0.08002324607845
N          -1.74673581114288   -0.34869489335783   -2.34229717917195
H          -1.84760447735601   -0.24331152271865   -3.34386642828383
H          -1.59637300190668    0.57270119419769   -1.94313894721851
H          -2.62185862280454   -0.70197468261499   -1.97612271183052
