    23
        -45.35981400  Gyration_radius:  2.3263604536 Dipole_moment: 5.645
 S          -0.05403532485351    2.06909959016019   -0.55819332747867
O           0.24201710973906    2.30748014562920    0.95080409809279
O          -1.27806142030194    1.30696254660341   -0.64679613569281
O           0.01584011071419    3.26782283231728   -1.30323088393014
O           1.12616085091721    1.14405220402839   -0.97841028516680
O          -0.51623548287768   -1.42705775682051    1.67511324095932
H          -0.64121769546141   -2.29437372712954    2.06168767462326
O          -1.68034846164717    1.00448773820841    1.98900276800713
H          -1.33666918034440    0.09209323598583    2.06557949276494
H          -0.50775783026420    1.86504774761796    1.47333365556749
H          -2.13327011507115    1.03818136553782    1.13413962815469
O           1.74852262182523   -0.10824198936615    1.17455836666873
H           1.76927280064989    0.61982983861031    1.80192195051586
H           0.97728548202977   -0.66928787865414    1.41721855128161
H           1.41306644056133    0.60802899277567   -0.17323230475476
O          -1.25660903491109   -1.39288648979399   -0.77582848398139
H          -0.83440453190626   -1.49136778788030    0.71377585519910
H          -1.41382731181316   -0.43621955754487   -0.87022164259057
H          -0.48445053856902   -1.58102992175310   -1.35989107259963
N           0.98472357606329   -1.54512708357884   -2.31000263700984
H           0.86992240664504   -1.73572834337281   -3.29739671353331
H           1.77758726135411   -2.08053703820925   -1.97917739009699
H           1.21248829751959   -0.56122869337380   -2.20475438499957
