    23
        -45.36171552  Gyration_radius:  2.47656905943 Dipole_moment: 1.796
 S           0.45297842593884    0.37281046868475   -0.62025091597625
O           0.65007717956870    1.30207224565672   -1.82541838638133
O           1.76602550001828   -0.41321331541559   -0.55053996346332
O           0.31988402278361    1.15711114132412    0.58077071011732
O          -0.64380160343622   -0.52356861069654   -0.87976708398201
O           0.79595229595077   -2.83940301608676    1.99419933765619
H           1.33679620625726   -3.40978432420215    2.54295714115082
O           0.88126546848276   -2.73925798041885   -0.64732143576888
H           0.84008934034488   -2.93527191028647    0.32206854843890
H           0.01096740838398   -2.37737157906090   -0.87164571620585
H           1.53138956912178   -1.43052625907635   -0.65330686538949
O           1.71169856526566   -0.33708922180282    2.33915736462467
H           1.05982521764959   -1.91610712010061    2.20799757601237
H           2.55039179752058   -0.30005203933553    1.87222969310121
H           1.13034896760418    0.28172755685692    1.86117567091391
O          -1.78505652691505    1.46244593646873   -2.44080375621432
H          -0.28684896127330    1.46015930454961   -2.22241106268353
H          -1.92406063102444    0.53987605445242   -2.19392315582130
H          -2.05707549599052    1.99004377705840   -1.63774336036923
N          -2.12439135799244    2.59468825329569   -0.05865132205110
H          -2.90591392310838    2.30214344157656    0.51475812027689
H          -2.02618312105608    3.59713519636935    0.04404776944419
H          -1.28435835407572    2.16143202021090    0.32242111255501
