    23
        -45.36262120  Gyration_radius:  2.44838893529 Dipole_moment: 2.529
 S           0.54013066194373    0.89796810853352   -0.15007605493738
O           1.97038100465528    1.41870183495244   -0.28885231843550
O           0.60323729134965   -0.11878212312697    1.00916496461724
O          -0.31169932198348    1.99280789160138    0.22125259714933
O           0.16031404658324    0.19028749444545   -1.34516330471636
O          -3.13772449101113   -0.18638305298441    1.32527882601890
H          -4.04895396283397    0.03914415773598    1.51949979116597
O          -1.06078088275311    0.89618815746761    2.59431357437601
H          -0.00960052286010    0.21503017034962    1.76766482067906
H          -1.01199398142653    1.72382554357697    2.09640931739058
H          -1.87555442406499    0.43857687505540    2.27464889321341
O           3.39430017850774   -0.43513312517399   -1.27514387859202
H           2.59645803081789    0.69117899287272   -0.65197290153872
H           2.80397146965796   -1.22834657532177   -1.09556063592892
H           3.37481896331952   -0.29274510033099   -2.22437814477234
O          -2.45999900356815    0.91858484617915   -1.01736992652398
H          -1.78477601337516    0.39891864535265   -1.47331744252780
H          -2.96059187642911    0.14090649727126    0.41307901398336
H          -1.95131793589856    1.64960534537422   -0.63644266561843
N           1.54329261275971   -2.25215509824456   -0.83019714851364
H           1.35792562185877   -3.13854559183251   -1.28246580224898
H           0.83235533137725   -1.58268465859028   -1.11919249888026
H           1.43580719341399   -2.37694922518080    0.16882090463110
