    23
        -45.35981400  Gyration_radius:  2.32636005253 Dipole_moment: 5.645
 S          -1.32867795039603    1.68087494001809    0.07032856410019
O          -0.84569170799380    1.78371847812741    1.54602877983639
O           0.01448728579602    1.73839967196696   -0.71564785134355
O          -1.90087290755388    0.36672697448789   -0.11008919793092
O          -2.12427104422881    2.78826329411195   -0.30064762891893
O           0.80176691771367   -1.71428022581677    1.23587991426198
H           1.27993304080790   -2.53377074469738    1.36660924913416
O          -1.38925385147790   -0.56663014504465    2.35321264403603
H          -0.59211807885085   -1.08671703796180    2.12843252724206
H          -1.06449710868473    0.89807476770558    1.99179504662424
H          -1.98268619347133   -0.66406336341956    1.59465590537604
O           1.74373681858880    0.76076798154996    0.91062812667781
H           1.51515649852557    1.23362166262631    1.71577701268863
H           1.50309443630728   -0.18203291368498    1.05786949885214
H           0.74165251209126    1.35236481875777   -0.13242155792848
O          -0.42195466409984   -1.70770731113610   -1.01332022492083
H           0.34274838197411   -1.78907899852551    0.33408015611080
H          -1.10004793625475   -1.03813349166983   -0.81157866727000
H           0.14815401330273   -1.29072060647700   -1.70169057607988
N           1.05544009613987   -0.21742001572652   -2.74444268489559
H           0.71816148370169    0.66974674091400   -2.38362698539940
H           0.82121942028955   -0.26444137943989   -3.72799991843624
H           2.06452052777437   -0.21756309666567   -2.66383213181622
