    23
        -45.36171552  Gyration_radius:  2.47639799659 Dipole_moment: 1.798
 S          -0.74098310710735   -0.42190485790289    0.04108523092143
O          -0.35540824796455    0.38014353097503   -1.09115828071243
O          -1.75929235205685   -1.47965959406071   -0.40497367257777
O           0.35222383134573   -1.06034577592148    0.72843827978806
O          -1.52126224414337    0.43137044103864    1.04568579994755
O           0.92760362212483    3.09776952159651    1.48683641656166
H           1.00701394922998    3.75757952596620    2.17775237955061
O           0.83034259014889    0.70563389768523    2.70676843533968
H           0.83524710827732    0.00459544981022    2.03006665660887
H           1.00497400794868    2.22199513267046    1.92822715779067
H          -0.03958702534064    0.65379603119297    3.11091881002916
O          -1.23101979316152    2.68061985673847    0.01702134133908
H          -0.86735939654555    2.25080951090237   -0.77150259757007
H          -1.53325998466244    1.41573739849639    0.68229309631024
H          -0.44402864532028    2.99122423127418    0.53086410296391
O          -0.78821475718544   -1.83451532182495   -2.69969747203622
H          -1.50737890711087   -1.73104192567432   -1.37129715004740
H          -0.56966340580208   -0.89701828722133   -2.76847127066312
H           0.05154520260412   -2.27467383877801   -2.38641325245694
N           1.39480782356350   -2.68795185338084   -1.44292753899667
H           1.48341449481216   -3.66467546144681   -1.19144196779818
H           1.16916124824791   -2.16971888771384   -0.59490258123458
H           2.30112397808999   -2.36976874440735   -1.76317189308792
