    23
        -45.36171550  Gyration_radius:  2.47666606241 Dipole_moment: 1.802
 S           0.01110427407334   -0.30769477284044   -0.79654965577586
O           1.18328990413992    0.20950022917738   -0.13908219945613
O          -1.22440590914556    0.32677739718983   -0.41416884795710
O           0.19317313020074   -0.21104735337917   -2.31712105463356
O          -0.11090728822766   -1.81329437136252   -0.54159650162738
O           0.01949073709243   -1.74769508704361    3.10132534425204
H          -0.23770367977204   -2.41321808141252    3.74156160438183
O          -2.10381605023425   -1.35041729146016    1.50282434667464
H          -2.16129787924674   -2.13096659180982    0.94599377697347
H          -0.79136810774056   -1.52484121873419    2.59091533107503
H          -1.90722022717424   -0.61859890698066    0.89031426097128
O           1.52541908536076    1.92395880252251   -2.29096574587329
H           0.75686749046033    0.63422247384582   -2.48537036906086
H           0.77296217244886    2.50944011081845   -1.99369113217760
H           1.97049459413566    1.65470884888620   -1.47805427175991
O           1.72456035286654   -2.12012847502477    1.11383297967654
H           2.02186858050492   -1.21833731865832    0.92134406687469
H           1.19894417646172   -2.04862388619109    1.94948561093500
H           0.66950431329468   -2.08907073665124    0.10276994548070
N          -0.63960366712150    3.05220867571123   -1.23678105190372
H          -0.52959570529671    3.67768442312610   -0.44819483627343
H          -0.98838032896386    2.16417657384975   -0.87843676331417
H          -1.35337997807636    3.44125656640945   -1.84035483747114
