    23
        -45.35981436  Gyration_radius:  2.32613532732 Dipole_moment: 5.669
 S           0.78434343413666    1.98141044870634   -0.26245932213085
O           1.26709884013948    3.17654272421345   -0.84150694871176
O           0.14455786747044    2.23197237266718    1.13380125516335
O          -0.43307870470279    1.47506395651073   -1.09091380166604
O           1.72044060783091    0.88991079862156   -0.12303013503015
O          -0.39569699745910   -1.58680738367286    1.55796393470528
H          -0.63115832905512   -2.46722813561415    1.85241564544592
O          -1.96600198777025    0.36794465376176    0.64608605036641
H          -1.07379142996911    1.01201526439975   -0.46424205548308
H          -1.48195129899975   -0.40716636056496    1.01133457348926
H          -1.96841441804629    1.04087600750774    1.33252710086477
O           1.25129621254312    0.36941186949145    2.46716115569075
H           1.92065112592020    0.30247075533434    1.77104468894022
H           0.56024306537886    1.56320070499370    1.77474582633674
H           0.66272517389122   -0.40063802229990    2.33656311364048
O           0.99377128399185   -1.67153435275089   -0.59087865894017
H           1.42892731170265   -0.80287012284885   -0.52102333110978
H           0.15448858057929   -1.70262369705260    0.71320909973257
H           0.39670716703864   -1.59316125369616   -1.37205553437081
N          -0.68093609697399   -1.07932630776116   -2.65115796057789
H          -0.63739323245071   -0.07656107129246   -2.49795404005949
H          -1.65231728995761   -1.35694421684883   -2.58735763730446
H          -0.36451087524442   -1.26595861180690   -3.59427299899232
