    23
        -45.36262113  Gyration_radius:  2.44711161921 Dipole_moment: 2.529
 S          -0.51946016005594    0.84529185865626   -0.37492398527470
O          -0.96708638535100    1.48445297573121   -1.68906406164146
O          -0.82890217771776   -0.65714353839008   -0.54438964889338
O           0.90433937788004    0.99447251852997   -0.22039750718807
O          -1.31966550410186    1.37940853213548    0.69127442659525
O          -0.37507764030584   -1.29035277260818    3.12656171462183
H          -0.50096122132124   -1.33459444930300    4.07589616530109
O          -2.38212980295707   -1.02327389355224    1.39615489616070
H          -1.51349223873106   -0.93110145501446    0.17571820822479
H          -1.71364392069833   -1.26375087643235    2.08243335373836
H          -2.49979654565699   -0.06610287481105    1.46801656795558
O           0.69462448170159    0.82048086731813   -3.48757055380206
H          -0.34494711140378    1.21743510735134   -2.46019508364319
H           1.35836347272041    1.51418870225592   -3.48660642364249
H           1.12006945436281    0.02187995406250   -3.05078937663228
O           0.66320852407830    1.09737563866984    2.50536823188206
H           0.10594028807529   -0.44866278838913    2.95046873599478
H           1.21338803786669    1.04439784630258    1.71259025385216
H          -0.16188295581239    1.47976201417357    2.17181550255978
N           1.72536515191351   -1.08663417734727   -1.99424573344855
H           1.02963126282022   -1.80782697573750   -1.84936047941359
H           1.67421438805094   -0.46527177895034   -1.18914241492873
H           2.63790124462309   -1.52443043466784   -2.00961278837521
