    23
        -45.36171553  Gyration_radius:  2.4767045734 Dipole_moment: 1.795
 S           0.43669948188396   -0.39653952510734   -0.61602738839543
O           0.62932388178862   -0.98111273827797   -2.02163407096648
O           0.48226529584465    1.04194622223802   -0.67821474903772
O          -0.76346376650219   -0.93723384172960   -0.03198181049077
O           1.66379985403687   -0.89383397071933    0.15426113701459
O           0.66082203308749    0.16902732062837    3.49476048489804
H           1.18454989610483    0.28317106958523    4.28956466161750
O           0.54112741404819   -2.04626859715488    2.05520295111882
H           1.31873330811701   -1.46811096417646    0.96170612148103
H           0.55897694763136   -1.31261324003740    2.71954320019589
H          -0.30298717907063   -1.94868672679736    1.58974292673921
O          -1.81851495101996   -1.12804894700829   -2.58833855924339
H          -0.31553972149066   -1.12600011407483   -2.40451287422450
H          -2.03090734446964   -1.36524679148094   -1.67728812643344
H          -1.96859193964906   -0.14227605632976   -2.64191846007588
O           1.84912457359504    1.62052048476411    1.57086638307344
H           1.03255741882776    0.78722022604192    2.82581525371958
H           2.64818552363807    1.14069454703840    1.33835975286623
H           1.29788030089776    1.59490444092504    0.76782983875276
N          -1.84380533356991    1.52114951943394   -2.35466074121230
H          -1.63387076840290    2.10110654942042   -3.15757186442612
H          -1.02487725178673    1.52481799365495   -1.74810321403453
H          -2.60148765353822    1.96141313915803   -1.84740087294104
