    23
        -45.36171550  Gyration_radius:  2.47663843034 Dipole_moment: 1.794
 S           0.02666202265883   -0.85091355616196    0.05406882369605
O          -0.03000888335330   -1.25054954016839   -1.42360695734587
O           1.17335150416808   -0.01339526861054    0.29360661429111
O          -1.23640647447529   -0.26443844865174    0.42264723688022
O           0.20839449439157   -2.18816658052963    0.78471210697817
O           0.08302184499952    2.09148223457988   -2.88025827929214
H          -0.14589840441470    2.38834060427663   -3.76255591705074
O           1.45122724668796   -1.24627708003524    2.76054685106479
H           0.73750282163506   -1.97713679917511    1.64235077328401
H           1.90320754935356   -0.61038274098504    2.19248886764443
H           0.67321349429791   -0.74864302475135    3.14019283913630
O          -2.04844990564616    0.75576660892878   -1.93547061522416
H          -0.73511543412798    1.70260157839960   -2.49660328832520
H          -2.06642882778291   -0.07747213291380   -2.41315499064730
H          -1.88255105689564    0.50982092670487   -1.00735591442936
O           1.80916994525544    0.16666344179056   -2.32387184749245
H           0.75882296610308   -0.76200333437638   -1.91369334526793
H           1.27785704020283    0.94485379241067   -2.62722625749500
H           2.06831224681402    0.37373013221577   -1.41355463495936
N          -0.76630890031172    0.13311583010225    3.26347437797830
H          -0.68942477381004    1.11238297656489    3.50894923654553
H          -1.49313995908045   -0.27207805814339    3.84014023458449
H          -1.07701055668075    0.08269842854776    2.29417409546331
