    23
        -45.36171520  Gyration_radius:  2.47653653593 Dipole_moment: 1.793
 S          -0.50695095577092    0.17272688197396   -0.66670874795695
O          -1.15491304410525    0.23803783385308    0.61820083140898
O           0.59290248072417   -0.75392369338854   -0.74078338035779
O          -1.53874620078229   -0.17029187393979   -1.74924846671750
O          -0.03350048813063    1.57834640827941   -1.05015972972406
O           2.71233543801442    1.87792819299866    1.33382415056599
H           3.18294417377487    2.65448494780736    1.64128637952696
O          -1.18877157695804   -2.66122722169589   -1.67314626628827
H          -1.58251439795633   -2.79054455481860   -0.76457121512040
H          -1.50892283579384   -1.19382195340871   -1.86029491892193
H          -0.24346123892714   -2.53938159228340   -1.52187015307123
O           0.09728868886725    2.34622303088236    1.73511096494465
H          -0.15819374676781    2.98919653806491    1.06868286127722
H          -0.40412828631704    1.54090252612481    1.51264158159880
H           1.76974191033246    2.00672672756255    1.58444761722133
O           2.42062132189573    1.18015636453637   -1.20052612973249
H           1.00139749558822    1.52954833668921   -1.21381775445952
H           2.68433374875702    1.45778503819554   -0.28771157835487
H           2.25018943139724    0.22844762108741   -1.13891975038616
N          -2.04096505320885   -2.52143744634105    0.84198177051352
H          -3.02912204958560   -2.60069951612653    1.04790166692764
H          -1.78529607247720   -1.53854658421138    0.92664652900437
H          -1.53626874256050   -3.03063600184114    1.55703372814471
