    23
        -45.36171543  Gyration_radius:  2.4764703772 Dipole_moment: 1.795
 S          -0.43350049030101    0.66759837825455    0.30859432577604
O          -1.64773830646678    1.35630033514900    0.94598001470846
O          -0.85627428827680   -0.07308211350133   -0.85186332630506
O           0.46448446730842    1.83447960871387   -0.11378567873790
O           0.25909783859856   -0.11191049886619    1.30250890164289
O           2.92804740409189   -0.06313564585641   -2.02238085498773
H           3.81108563775067    0.17865422746582   -2.30662038504396
O           2.82850765622265    0.34482247329145    0.63139408772782
H           1.97101701323111    0.02713535658970    0.96782767226294
H           2.93056421618875   -0.01958773473554   -1.03954768658153
H           2.80267831577170    1.29796095428180    0.74824770114693
O          -3.30521608060961   -0.45354482302856    0.38760217601894
H          -2.92635428772941   -1.13266932761008    1.01389967768560
H          -2.45007620567616    0.73149560262394    0.78374698290407
H          -2.86547937619444   -0.61683890730334   -0.45581133936826
O           0.73161400913148    1.31745588693103   -2.53515318331861
H           0.03741606695861    0.64721165845914   -2.44829131417539
H           0.59950957317184    1.76949094349187   -1.15236883479066
H           1.58434368092689    0.81594978790911   -2.49913664279418
N          -1.83184228086175   -2.02633362800629    1.94616958670234
H          -1.60981833875781   -2.96191457697246    1.62904130424423
H          -2.02371515954226   -2.07608560037787    2.93903983822750
H          -0.99835107495511   -1.45345233686032    1.82090696703334
