    23
        -45.36262089  Gyration_radius:  2.44787694958 Dipole_moment: 2.532
 S          -0.29735753993627    0.24388513851481    0.98715366332400
O          -1.54918987407499    0.45334141733504    1.83861653983076
O          -0.60251435987691   -1.01185553711312    0.14351895652711
O          -0.12667117550254    1.35600783929540    0.08879627474703
O           0.81088582038173   -0.02597020886246    1.85981154743696
O           2.99923812840525   -1.37739547129930   -0.85014696584723
H           3.94008790395180   -1.56141855060236   -0.84616004184688
O           1.28904199087411   -2.50633971350955    0.85123446575137
H           0.08638010398601   -1.73987867437870    0.38366258742341
H           1.95402253392036   -2.24327499748517    0.16978249153654
H           1.44733362919370   -1.92790435161487    1.60986116432540
O           2.59795727804712    1.07046651569888    0.15643120818212
H           2.90098279848053   -0.43522078924891   -0.57923248566333
H           1.80981950308749    1.48379325066127   -0.21997612914802
H           2.29172835230985    0.76936795217226    1.02478232395999
O          -3.39914831735764    1.29391255093486    0.31931162566978
H          -3.03503129147602    1.01574596687635   -0.57486401605375
H          -2.34073189595047    0.76144928246481    1.26292969329411
H          -3.33617325549080    2.25144618161498    0.35051449938475
N          -2.08090665187546    0.61122908173592   -1.85450214089139
H          -1.22329374049519    0.95499126349111   -1.42639632000018
H          -2.13380034935430    0.96116077990165   -2.80286438187255
H          -2.00265958124235   -0.39753891658301   -1.89226458007948
