    23
        -45.36171548  Gyration_radius:  2.47661838886 Dipole_moment: 1.801
 S           0.32967803801296    0.49756787539485   -0.60910637024581
O          -1.08318336333785    0.40752105739024   -0.34533358158278
O           1.06801320283271   -0.71438385381406   -0.36135930344412
O           0.55118788435776    0.95095972278671   -2.05834208303194
O           0.94641890787864    1.62675655196503    0.22201382518698
O          -0.20524352127536    0.55888683929539    3.51089133474504
H           0.10134574330138    0.81097724568429    4.38348142603364
O          -1.01039008531909    2.24038141823096    1.63501880705635
H           0.18664143716205    2.02701010710936    0.82476634393343
H          -1.56569214033273    1.67777290279253    1.07479615817556
H          -0.80728321980893    1.69265777671896    2.43414796070084
O          -1.45205752927541   -0.23334318735922   -3.01677617032102
H          -0.22472356901834    0.55181200984989   -2.60535444923676
H          -1.09574986183458   -1.15697194520209   -2.88592226338239
H          -1.96304358278607   -0.04585389295436   -2.21982452250454
O           1.95182309766227   -0.28359530366294    2.14742474095349
H           0.56283837509914    0.14789835692701    3.05393003504427
H           1.66779796588068   -0.62377490273373    1.27962755460491
H           2.46023662360205    0.50696449245073    1.94924428693959
N          -0.26555822428746   -2.48394815086812   -2.24241565961440
H           0.38171143237246   -2.95323150145679   -2.86361526774565
H          -0.81752804065836   -3.19524371990641   -1.77923189908127
H           0.28276043979918   -2.00681986863602   -1.52806091314059
