    23
        -45.35981436  Gyration_radius:  2.32613548965 Dipole_moment: 5.669
 S          -1.73194333740340   -0.03391048278898   -1.26853465329745
O          -1.31398754634506    1.25513687640423   -0.50139159803056
O          -2.33390582202160   -0.90771928623031   -0.13021998143394
O          -2.70106372463663    0.30489523151952   -2.23946760577098
O          -0.53237943473270   -0.69087928253896   -1.73385158995159
O           1.19204973666121   -1.25451862379629    1.45148977876424
H           1.95063548508460   -1.44951068249301    2.00268090086817
O          -0.82109586911607    0.44217124056357    1.88374832839837
H          -0.04825231346921   -0.16488781436194    1.83176324184969
H          -1.09024918104668    1.00127572091174    0.44895325018189
H          -1.59345742912081   -0.10681881144968    2.04533681717125
O           1.89957808833805   -0.09146079036009   -0.71691818292605
H           1.55076749889597   -0.80459076656856    0.61565577156415
H           1.12413911029576   -0.31172541809491   -1.26372702454552
H           1.85406868958229    0.88635598511140   -0.59580030751152
O          -0.56688323433559   -2.73273931240258    0.00684696338032
H          -1.72462169446515   -1.71243158446760   -0.02040194467803
H          -0.26027437263533   -2.46752681353857   -0.87221507173907
H           0.09630590326149   -2.37721871053059    0.63153073164259
N           1.38844743316330    2.56221787759594   -0.40582267476447
H           0.39853140173749    2.47321203108445   -0.61330641225308
H           1.79111647951765    3.20874301106916   -1.07237138432878
H           1.47247411279142    2.97193042536174    0.51602265740858
