    23
        -45.36171548  Gyration_radius:  2.47642482079 Dipole_moment: 1.800
 S          -0.34891208432222    0.58645162437208    0.51445281472279
O          -1.10454003005315    1.06068593751464    1.76297190476505
O           0.16974760664819    1.88540242066617   -0.11023136440772
O           0.75817371530793   -0.24505243196843    0.91063132203586
O          -1.26972725639252   -0.03266516538175   -0.40421932731180
O           2.31259335842106    0.41752718326265   -2.67214236108804
H           2.68730269819384    0.80644376091524   -3.46418840396186
O          -0.33566712324960    0.86120678812021   -2.76816681761559
H           1.33546622005483    0.48348581844005   -2.76533140138071
H          -0.75975755575706    0.40331261991182   -2.01985945286338
H          -0.45163356507266    1.79683876104658   -2.58413594585401
O          -0.72991844784174   -1.03032709062924    3.11251918635627
H          -1.02961640522922    0.29787441529132    2.45082536309504
H          -1.31627810577973   -1.61586663283507    2.55533728909251
H           0.15395277996404   -1.13134928161435    2.73833112091622
O           2.60352083887802    1.36845447864502   -0.22145511590091
H           2.65318191043117    1.02950110810886   -1.15012926904030
H           1.21611552413707    1.82165776273048   -0.14953108058016
H           2.44222087510426    0.58648995591573    0.32732308646306
N          -2.13217187569172   -2.27773706271848    1.22824252313917
H          -1.91982556357825   -1.56676643261639    0.52968520762939
H          -3.13973169438903   -2.34139077252239    1.30491176894610
H          -1.79449581975816   -3.16417773468457    0.87415894283074
