    23
        -45.35897956  Gyration_radius:  2.43246619888 Dipole_moment: 3.221
 S          -0.68080263127546   -0.11509632627821    0.64705064828156
O          -1.04408938308526   -0.02522150108290    2.14098582975367
O           0.47286420683380   -1.03013813241524    0.52655425297523
O          -1.84402209199501   -0.68425577598765   -0.04835452062800
O          -0.35817836333434    1.20706128053183    0.14932501614198
O          -0.15472982160142   -1.31779091758021   -3.20908373335990
H          -0.59856964262942   -1.54445661638215   -4.02847090781360
O          -1.27744558815278    0.87470503107233   -2.31251038502149
H          -2.15103290554735    0.59811362709283   -2.01915709767409
H          -0.83390504854524    1.15236364378652   -1.48347958693292
H          -0.49829579191061   -0.42240771145500   -2.93483302258510
O          -0.62370728228123   -2.54894801844336   -1.04389116334697
H          -1.38480412982395   -1.90912814060738   -0.69290414261778
H          -0.38928731180646   -2.17364723613605   -1.97796145627831
H           0.07655742436900   -2.11667384090121   -0.39588993459135
O           1.36470557348732   -0.06404556437959    2.95313057390207
H           1.64105620857187    0.84302351206370    2.65336925090987
H          -0.15684250798292   -0.02151461905323    2.63540588472592
H           1.54916115059580   -0.64637593165549    2.20479461022555
N           1.76734169916388    2.28402395684597    1.74215825193283
H           1.02380694834862    2.04285534225375    1.08510867463909
H           2.60258434360063    2.47499912360078    1.20296126229242
H           1.49763493500169    3.14255481511939    2.20569166504372
