    23
        -45.36293462  Gyration_radius:  2.48267350022 Dipole_moment: 1.868
 S           0.28841755497554   -0.66099233340537    0.72747762314649
O           0.71325919256202    0.80154649284825    0.46062694272502
O           1.43704155896914   -1.45899207898835    1.00755960443029
O          -0.74630550622132   -0.63017534039179    1.72486771323289
O          -0.31072181766930   -1.10836059052763   -0.62554785203375
O          -3.09941595768240    1.71847021526990   -0.18132212695351
H          -3.95458132845026    2.08923191899560    0.04225849064966
O          -1.43177305558951    1.97165177419458    1.88238312236677
H          -0.60785932200745    2.36276047004022    1.57993837687696
H          -2.50112209151531    1.92148256870362    0.57692662708111
H          -1.22683680431388    1.02607048397083    2.00434483102294
O           1.80512169410277    0.48580124192333   -1.78667250429550
H           2.54115827399123   -0.16277507641751   -1.56479006741846
H           1.10910097182854   -0.03439341534598   -2.19922397504686
H           1.21013978885513    0.78824128378135   -0.44001091669260
O          -2.75490702859564   -0.90364213102958   -0.10449735880485
H          -1.33942046480518   -1.06477361299838   -0.53726426327517
H          -2.56241323933514   -0.98336339731159    0.83939146453510
H          -2.96501700367947    0.05304031769035   -0.25563776437913
N           3.49396438562708   -1.35762229851531   -0.94923591879369
H           4.39330787475726   -1.07580558224530   -0.58042216914162
H           3.62703872462455   -2.21871578453149   -1.46446407574682
H           2.88182359932926   -1.55868510547645   -0.15668581323325
