    23
        -45.36335615  Gyration_radius:  2.46235051595 Dipole_moment: 2.397
 S          -0.92722771628598   -0.40768552107889   -0.29657584770358
O          -1.18653919509729   -0.10285501394328   -1.67425885942617
O          -2.17494433075339   -1.01383760251631    0.34173351918505
O           0.21069205841474   -1.25950128557718   -0.06329426336748
O          -0.71989155456609    0.90561753965332    0.49807435573179
O           1.94614697639530    1.95971490996194   -2.06144887088454
H           2.38904682896869    2.29786774909863   -2.84142000711490
O           1.38539378642502   -0.62716248104814   -2.42727443954273
H           1.85738142984378    0.98628683832113   -2.19193765046977
H           1.32737019632794   -1.03586305755153   -1.55075670933799
H           0.45869205739726   -0.53328551404371   -2.68468382297568
O          -1.70774098480491   -0.53734088979873    2.77218442576176
H          -0.85015953849412   -1.04664799104680    2.89392957645176
H          -1.45675404801703    0.38611655907659    2.67472257241086
H          -2.08288115229553   -0.89449219714901    1.36238071682490
O          -0.56143946600600    2.53011264646724   -1.40456438111916
H          -1.00047203402748    1.88093376208179   -1.97163331760927
H          -0.65335282564153    1.68112840027865   -0.18239887888206
H           0.39991884198516    2.47612975683683   -1.62935709433620
N           0.61277447011084   -1.79321424228885    2.71250754421670
H           0.64673808841259   -1.70487134963190    1.69622380136363
H           0.63720074019543   -2.77947337845066    2.93804595401274
H           1.45004736152413   -1.36767764762040    3.08980167680117
