    23
        -45.36265656  Gyration_radius:  2.45509691552 Dipole_moment: 3.934
 S          -0.24049332204080   -0.55865771161468   -0.93433432018549
O          -0.21843450842966   -2.06713888009701   -1.18822469129828
O           0.84064822833304   -0.34515390961083    0.15742029111691
O           0.14958856660524    0.14853480679162   -2.11454074933279
O          -1.51164839865390   -0.19245102544795   -0.36071724933097
O           0.96800900249240    3.28387660438043   -0.24682181623734
H           0.83159607606012    3.49372416170307    0.67792053256041
O          -1.78426149879423   -2.71187938068617    0.67049107115888
H          -1.17650365581197   -2.59660906245911    1.44930273030282
H          -2.22556974336074   -1.85907690586933    0.55756242973828
H          -0.84082225906747   -2.48985088889507   -0.48223156318512
O           2.41286665245520    1.20331399352000   -1.00851776358804
H           2.00750467981433    1.01683065344212   -1.86632400211483
H           2.02778366445032    2.06890587652576   -0.72099049233041
H           1.58996811566231    0.25770687487344   -0.24768150836074
O          -1.35100205928982    2.36508278389137   -1.22732738976479
H          -1.57736200369231    1.52242525563378   -0.79850944013553
H           0.08489981511476    3.04265449157566   -0.61013158431096
H          -1.10843987347465    2.12073476304550   -2.12528457090711
N           0.06406759029134   -2.04367961636292    2.49048514614409
H           0.76117513511745   -2.73336356377890    2.74113961994292
H          -0.20001558879109   -1.54733070829473    3.33214936553945
H           0.49644539501457   -1.37859863234736    1.85516594455463
