    23
        -45.36335603  Gyration_radius:  2.46240659378 Dipole_moment: 2.398
 S           0.66164828299642    0.81547108151167    0.09621487557579
O           0.10298755322125    0.47036633810232   -1.18580562962437
O           0.60295701844403    2.32726236086044    0.30348860877974
O          -0.27819958864641    0.26551600302914    1.19776033327357
O           1.99829859402333    0.34652467970565    0.32353770016222
O           0.97594588583608   -3.28065297624017    0.41118287098987
H           1.49608807661854   -4.08507984471279    0.37651643615100
O          -1.85865854287725    2.61913189561841    0.75880584031870
H          -2.24324821325877    2.26974472997167   -0.10129033974011
H          -1.95449670897051    1.90875663169606    1.40026393213218
H          -0.38365148307365    2.57213709387843    0.48014306241796
O           1.25557560240240   -1.40414519151778    2.26756843953442
H           2.00734445807388   -0.93813309647516    1.87590669203087
H           0.24778024670327   -0.44015812258395    1.74011599077575
H           1.10707685576134   -2.19931365449030    1.69901230751242
O           1.77691912265271   -1.63784852680466   -1.53810613726940
H           2.35050086603664   -1.06710259133533   -1.00970336101208
H           1.22477090353757   -2.75397924223684   -0.38453762344629
H           1.03096580073281   -1.05801882170127   -1.75233954507300
N          -2.55275780627064    1.46626264643668   -1.51146916514918
H          -3.25706376830908    0.73982500154783   -1.53775317366579
H          -1.63785074931998    1.01853754650239   -1.57651333814812
H          -2.67293237639500    2.04489606929361   -2.33299875648823
