    23
        -45.36399024  Gyration_radius:  2.41585094276 Dipole_moment: 2.008
 S          -0.20289061886483    0.89391454046757    0.60967074782830
O           0.50972589905836    2.10459400013102    0.85791002523592
O          -0.49870133955962    0.81003643747745   -0.89752407015874
O           0.72201498061979   -0.32294705733901    0.88169331728189
O          -1.40727180484539    0.67076528290361    1.35471497227309
O          -0.49241035901425   -2.83062918003406    0.43923628521017
H           0.12514825016604   -2.14853624921932    0.73383397467342
O          -2.82559006641589   -1.55896158655869    1.34173405994079
H          -2.32365800166259   -0.71995595696953    1.42472628167569
H          -1.28011278248610   -2.73374171389785    0.99436714965423
H          -3.51515272428770   -1.52354291857758    2.00572271322766
O          -1.82322852120174   -1.30280770604319   -1.26547154113341
H          -2.58109044786481   -1.27154246597273   -0.66475085188168
H          -1.05984491997889   -0.03386594761619   -1.09608527845377
H          -1.24467614062459   -2.00101969118666   -0.87079159213652
O           2.98516064115544    0.41846117857891    0.06250843185015
H           2.71678628076381    1.07056379746745   -0.65725292309933
H           3.33485996101838    0.95150517636062    0.78071882272192
H           1.66623022931455   -0.08191808019351    0.54571344477555
N           1.98718261880441    2.22593247852572   -1.55936882940919
H           2.43743996004088    3.04694077649862   -1.94384271891997
H           1.37159280805538    2.51515094543897   -0.80069052751167
H           1.39848609792088    1.82160392989414   -2.27677186365532
