    23
        -45.36293460  Gyration_radius:  2.48322776645 Dipole_moment: 1.874
 S           0.22346197316722    0.76331820246001    0.64431474871843
O           1.32471353918930    1.47327781071332    0.05317619020557
O          -0.98930961744680    0.79995509664684   -0.31385624403905
O           0.60519059487397   -0.73461203402603    0.67533274677721
O          -0.20114568475915    1.18480319690092    1.93921427716342
O           1.41480095002333   -0.53160332129063   -3.21340342432863
H           1.98612228372637   -0.48293390254929   -3.98144597974977
O          -1.70027954091828   -1.71745558933849    0.91893395995020
H          -2.00035896012908   -1.31532453559893    1.79073736875607
H          -2.13412448290290   -1.20728611283585    0.22846135884180
H          -0.27844463053735   -1.24502777613185    0.80640928632737
O           0.13076810448776    1.63326397357737   -2.39699403123031
H          -0.64919897770601    1.13477895304125   -1.23037375153115
H           0.84145842529920    2.01444904961846   -1.86411458163092
H           0.51555257063395    0.82244934669268   -2.81711592838900
O           2.87713778338253   -0.46994900137447   -0.98577369433028
H           2.00893105513485   -0.59830958044132   -2.42813400099029
H           2.47478030354949    0.32236147283943   -0.58408771146157
H           2.61375173067665   -1.19438889374441   -0.41203033575362
N          -2.28316293151546   -0.35990258019976    3.10268943624869
H          -2.04484392454960   -0.74911780879108    4.00607463419370
H          -3.16592748297785    0.12621346706647    3.19825214082314
H          -1.56987308064518    0.33104055678251    2.86373354540273
