    23
        -45.36398972  Gyration_radius:  2.41596225816 Dipole_moment: 1.997
 S          -0.16158324098369   -0.77780832971321   -0.75978789458378
O          -0.06999791839554   -0.88157408990300    0.78645256110023
O           0.42475807699262    0.60846008869222   -1.07746019335142
O           0.67697851410853   -1.76474101192413   -1.35810775646302
O          -1.55564145397046   -0.80387680457898   -1.09341861931828
O          -1.64988242772976    0.99787482565752    2.17655288285763
H          -1.10260990420679    0.22715694915673    1.97700226010832
O          -1.13270086356783    2.31186202444497   -0.06384118871663
H          -0.19273258308986    1.34377821579119   -0.69730149063533
H          -2.02069183121071    2.11748266155894   -0.39562865315971
H          -1.17652861825854    2.03809377421234    0.88530395466842
O           2.34051329568894   -1.46536735384389    1.22393457144611
H           0.90735645502020   -1.10188238656716    1.02837450161321
H           2.38747434975803   -2.40945456655246    1.05396582761818
H           2.78284464317006   -1.02318819856460    0.43431540409539
O          -3.42292613327105    0.69769887294523    0.02084185308596
H          -2.78748578587899    0.08176715848436   -0.40310575517557
H          -4.29336333544744    0.42606470898895   -0.27269391889096
H          -2.51013556337728    0.82696701243375    1.76582342891466
N           3.16692167625169   -0.44013325669260   -1.04851879306300
H           2.39360673529489   -0.92272891193535   -1.50360283345960
H           4.01877371747412   -0.63799725815060   -1.55824141650077
H           2.97705220561958    0.55154588604331   -1.12085872208784
