    23
        -45.36265557  Gyration_radius:  2.45469362246 Dipole_moment: 3.921
 S           0.25956669483763   -0.47378503237161    0.97747734595325
O          -0.70577721022043   -1.44416571058600    1.39153864186078
O          -0.48006859406484    0.71345302179836    0.30690410523705
O           0.93815255321249    0.15238573343495    2.19744606641534
O           1.26933184852566   -0.92941784261169    0.05465788069430
O          -2.54579878971409   -1.35979272475662   -1.86717820804187
H          -2.32701622045060   -0.90244490351887   -2.68011203296810
O          -2.84906136298197   -0.06279880463165    0.41795169631015
H          -1.50434769338419    0.51599526750345    0.34774462369171
H          -2.90962230701167   -0.51219162685829   -0.46217187710499
H          -2.62015447895372   -0.76174035381447    1.04578734822065
O          -0.38088558158098   -2.74000652970082   -1.09375309195732
H          -1.77376210597724   -1.93288513456878   -1.65452946112941
H           0.33961508635487   -2.13336925826502   -0.85296267274548
H          -0.66987806371037   -3.11529482529440   -0.25681171350501
O           3.01710335939493    0.94040552592395    1.02241477215981
H           2.92877899825011    0.18975384683884    0.41958160484325
H           2.64569443808009    1.72150468108255    0.53142576632596
H           1.83971464948853    0.53016202720019    1.86746923018975
N           1.59289549060217    2.77460077534082   -0.31257954850676
H           1.41931842318934    3.66738260598913    0.13149091994863
H           0.74576827633706    2.21816000823719   -0.23725088566115
H           1.77043259972628    2.94408925361459   -1.29454051027086
