    23
        -45.36401758  Gyration_radius:  2.40177466777 Dipole_moment: 1.942
 S          -0.14894440991827   -0.40344819129372   -1.30459507381312
O          -0.79831547886370    0.66740508290274   -2.00067132654993
O           1.12534615080441    0.18033781304168   -0.63605235587747
O          -1.01822294304788   -0.83020011188414   -0.09946822363665
O           0.19096213603742   -1.57701487240136   -2.03792518603591
O           0.67505172647630    2.45899639420156    0.94139910105252
H           1.11403747975076    1.76839891018037    0.42679623474855
O          -1.29901193270994    3.04726879333741   -0.96122667614178
H          -1.10401091406943    2.20248877316273   -1.42036012795471
H           0.23058425682387    3.02743735287525    0.29531637544894
H          -1.60129248734954    3.65378795145295   -1.63842402747025
O           2.24016230062308   -2.02960599566182   -0.34524943817917
H           1.78372270782959   -2.32739436488320   -1.14627316265339
H           1.71370750526115   -0.65697192178207   -0.45338882461461
H           1.72161720881840   -2.41599112847565    0.41405188278059
O          -1.66224175457496    1.25182071328547    1.15630743749933
H          -2.06530107379822    1.85613809267055    0.51701875297798
H          -1.33082075315787    0.00659167136165    0.42937827111333
H          -0.78248496165783    1.66791843164530    1.34241795029440
N           0.48480952351579   -2.85241720746536    1.49188626550977
H           0.58565572197228   -2.53448056878711    2.44750963299850
H           0.22266182147459   -3.82974872524400    1.51393446574057
H          -0.27767185070801   -2.33131688196966    1.06761807263523
