    23
        -45.36401759  Gyration_radius:  2.40148989935 Dipole_moment: 1.944
 S          -0.38426062139235    0.07680513932134    1.31814924130629
O          -1.22894142906999    0.46705195055887    0.08354560088581
O          -1.19948612972798   -0.71927422778454    2.17389264326318
O           0.74691466621589   -0.79884560848030    0.71372662007921
O           0.22676530064943    1.25224067502026    1.86397549476558
O           2.43028405584761    0.54600665979422   -1.08672455482811
H           2.07514461032326   -0.11729088785584   -0.47981014017271
O           0.19705743324696    1.91905777839771   -1.39440017399595
H           0.53264632785496    2.64110596692282   -0.84444715898813
H           0.99608736631258    1.35184846491182   -1.54098821197879
H          -0.68387442445400    1.09418268726848   -0.53894471063892
O          -0.59680637588737   -2.89781957499431    0.70440220300904
H           0.31998843384637   -1.74462032556540    0.65233990826298
H          -1.06190411552343   -2.56361210719650    1.48586349131933
H          -1.21516956189248   -2.73561944908076   -0.06105511762531
O           1.98993171128008    2.75323409228136    0.58624662935365
H           2.71312732221184    1.28724861737840   -0.53113210114690
H           1.37565921558666    2.21592174451522    1.13072950940930
H           2.37802893677254    3.39639099379776    1.18085350839934
N          -2.25149813127270   -2.02047039746066   -1.19993911788590
H          -3.22641278849715   -2.28981108383986   -1.16231975037348
H          -1.95439755563572   -2.05754610017282   -2.16680624318626
H          -2.17888424677742   -1.05618498771765   -0.88715755932567
