    23
        -45.36265653  Gyration_radius:  2.45561262541 Dipole_moment: 3.930
 S           0.87314455543706   -0.63624840352430    0.26670315553764
O          -0.21609251875500   -1.09577067869039    1.09221152328801
O           1.90592420246299    0.09684141610838    0.93077580814046
O           1.46855621984849   -1.82583859783171   -0.48872223324594
O           0.26691077022200    0.25324286463328   -0.85006315437809
O          -0.19406516460563    3.16954044173011    1.31333071685372
H          -1.12126898598074    3.30260035890992    1.11237077913904
O          -0.63610146004673   -3.19646158235738   -0.60858867027928
H          -0.90974927892530   -2.79915971539427    0.22931813526194
H          -1.12290449609425   -2.69236296558834   -1.31433661065422
H           0.70102362067449   -2.50361167958483   -0.61539752914954
O           0.00724048771855    0.96708770675346    2.82691621866560
H          -0.26048633745075    0.18851547552770    2.30973135503415
H           0.95942128045542    0.87501207096036    2.92549444502727
H          -0.15241902971880    2.41683783584179    1.94716913233580
O           1.53557241303062    2.37734797307482   -0.52405613738197
H           2.18923150245875    1.93522462757528    0.03472426438839
H           0.76968194590459    1.16802384114525   -0.83889274300189
H           0.92413488696626    2.83733889347458    0.10431375893464
N          -1.70114466699240   -1.44108902957044   -2.32869947377774
H          -1.48573833230088   -1.54607709118499   -3.31204466211073
H          -1.12890103413314   -0.68521351095315   -1.96236912297090
H          -2.67197057017584   -1.16578026105571   -2.24988895566329
