    23
        -45.36265659  Gyration_radius:  2.45528995746 Dipole_moment: 3.938
 S          -0.23951994243161    0.05905867287522   -1.08703975649587
O           0.35350482720907   -0.85547249266117    0.01672473793964
O          -0.09903634641876    1.42272670085990   -0.64002635764635
O           0.67459255139355   -0.17265312312040   -2.29150342681674
O          -1.56914744257009   -0.37693987512900   -1.38218567743641
O          -2.55102528597317   -0.58073200042677    2.22336272471523
H          -2.06131221962287   -0.31143352383922    3.00152719604309
O           2.43580056478766    1.50894886311935   -1.66554939878964
H           2.88704183573945    1.01332512596740   -0.93061407728376
H           1.47234154520490    0.47209848010401   -2.17929469438959
H           1.74443847640483    2.03313294099182   -1.23884904289049
O          -2.54931726471080    1.47548883334828    0.50449573604921
H          -1.64167845320344    1.64632347393070    0.20063405320905
H          -2.99294336103354    1.09987893143174   -0.26172021557905
H          -2.62253755856329    0.21713391072868    1.65026441213268
O          -1.58599261921663   -2.34745735627273    0.50773245430989
H          -2.04096652209991   -2.07031593391660   -0.29920780279803
H          -0.36948394939900   -1.56561325479406    0.26622984555751
H          -2.00897672666388   -1.82840311401079    1.23707620655253
N           3.19880589530850   -0.02368020886996    0.39427814508110
H           3.86492210270792   -0.76521210499649    0.21880455952151
H           2.27583012801431   -0.44299941894482    0.46613522870283
H           3.42465975512917    0.39279647362907    1.28872516029120
