    23
        -45.36265658  Gyration_radius:  2.45565355708 Dipole_moment: 3.934
 S           0.23338026608315    0.77790043232881    0.76126506593937
O          -0.10947946257718    0.80474979854475    2.25189385659207
O           1.45484776661904    0.03634349705232    0.56853334754725
O          -0.91642353246576   -0.04688275012111    0.12581144314773
O           0.20444840994724    2.10198231101758    0.22187913086491
O          -0.09882465482222    0.90976549599348   -3.31167804165213
H          -0.05250527721920    0.01850099288480   -3.66000538649704
O          -1.87351736990015    1.60748002222664   -1.47892453350731
H          -1.40302472822278    2.33694840679021   -1.05292150147096
H          -1.33774459055292    1.38475938841692   -2.28119653531954
H          -1.42745606756911    0.57558795543798   -0.53819502461770
O           0.96345725719896   -1.38876866367788    2.85147881281522
H           0.29065422627408   -2.01351541198122    2.46892112921875
H           1.60651814392284   -1.23594898979188    2.14587388367093
H           0.28259515543217   -0.05993082629815    2.65588068404006
O           2.04744662783794    1.29145765480080   -1.75303741839448
H           1.88834028986347    2.17191164999668   -1.40040449820520
H           1.99705167259874    0.70621022296941   -0.97826341752669
H           0.74350424319012    1.06175007458824   -2.82424981586021
N          -0.92619017356824   -2.70762830554496    1.48626202456838
H          -0.68389268953327   -3.50246444391394    0.90826897204721
H          -1.08653176478503   -1.91143061735391    0.87528260263353
H          -1.79665372776796   -2.91877791432373    1.95752520996292
