    23
        -45.36265646  Gyration_radius:  2.4556714024 Dipole_moment: 3.934
 S          -0.81074844436828   -0.73484576883886   -0.19429548300010
O           0.05025718015356    0.38110282685214   -0.84178866881287
O          -0.31175420100056   -2.00654206785891   -0.61731764157840
O          -0.82875394661434   -0.49685689433954    1.22772679949459
O          -2.21162914937363   -0.49899784367591   -0.76195487132336
O           3.24558557274292   -1.12084227012428    0.11917185145398
H           3.60308280786543   -0.34055465560101    0.54477664421827
O           1.75848124660896   -0.96770534495240   -2.06229936259144
H           1.23222253020423   -1.77342637614710   -1.96811861377645
H           0.78040735662666   -0.07863950231972   -1.42956583708442
H           2.45234368655426   -1.02607038289998   -1.35831576100712
O          -2.94119828488074    1.21533148252547    0.92669682399244
H          -2.42437254052182    1.99990423855861    0.60030387349734
H          -2.65818896422909    0.20275752536996   -0.15177629096042
H          -2.37092087629037    0.78011848378611    1.57487634041658
O           1.30522740116353   -2.09285527220869    1.69099008037395
H           0.96379198494300   -2.82116927705593    1.16380534034290
H           2.60601442966139   -1.51602370797551    0.75555515975113
H           0.57030420088711   -1.45765374929739    1.73318830906518
N          -1.21632036876380    2.98620778437502   -0.10474237415237
H          -1.51467425659504    3.52993824151375   -0.90458553863355
H          -0.60625300688198    2.24587804403161   -0.44048827777267
H          -0.67290433793110    3.59094447629206    0.49815748803458
