    23
        -45.36265645  Gyration_radius:  2.45508925865 Dipole_moment: 3.937
 S           1.09402045019721   -0.17760510581926   -0.11314439272666
O           2.10975588074979   -0.64329054434588    0.93174266816917
O           1.43884206942516   -0.69034960296340   -1.40290477992428
O          -0.23918264281573   -0.82594666989849    0.34323249848468
O           0.93462017705025    1.25214393812116   -0.01590780318771
O          -1.99222508973488   -0.14242262349880   -2.79158067008508
H          -2.74415820581103    0.29364038273709   -2.38888865507425
O           0.11339657585035    1.50202483484831   -2.58091636392980
H           0.82745040007268    0.96455237106164   -2.93627094827441
H          -1.25818074301185    0.51432625263226   -2.79279419488817
H           0.34180731374668    1.62066122997180   -1.64332141006430
O           1.66241470258436    1.16504825371758    2.62079483071905
H           0.79237656752801    0.84514372229626    2.98141050236741
H           2.04844290840565    0.02507214908415    1.71518841707411
H           1.43839393474568    1.75605190102680    1.88913820764058
O          -0.81239024411525   -2.21548458535405   -1.64890379926366
H          -0.55004651509887   -1.48057649231596   -0.40802845049123
H          -1.36172330658222   -1.56115115862023   -2.14932903890689
H           0.08132287707604   -2.12417526916654   -2.00653747394342
N          -0.75032727073747    0.11994065045785    3.13123032260693
H          -0.81718015779216   -0.62863703374890    3.80901484254661
H          -0.80363913323596   -0.29225066422690    2.20379814559717
H          -1.55379056854062    0.72328405400941    3.25297755556205
