    23
        -45.36265655  Gyration_radius:  2.45539147738 Dipole_moment: 3.934
 S          -0.12313662638661    0.83971014372505    0.71868111591006
O          -0.54834024750398   -0.34517059190225    1.42182526757934
O          -1.15506298291436    1.75048781333360    0.33028413130254
O           0.93874407800935    1.56358544828395    1.54845680898554
O           0.64090260255609    0.37858620413279   -0.55004988673643
O          -2.38286484694631   -0.45168732237299   -2.43415880661752
H          -2.11647232612949   -1.34282343974704   -2.66376451319938
O          -2.95215999983357   -0.41766654393911    0.18427595146841
H          -3.13895727698256    0.51303009077050    0.33870045557838
H          -2.68051117571775   -0.48370072383470   -1.49582168693456
H          -2.14518519085039   -0.59229079010301    0.69773006574609
O          -0.64661017746205    1.54123567442699   -2.34391240960703
H          -1.31032932963044    0.83601737090654   -2.55017221547907
H          -1.07973595510523    2.11781089477390   -1.69975764143111
H           0.21064264619130    0.85480559195620   -1.37332447977808
O           1.86727308669548   -0.46958640456524    2.69991372306013
H           2.38718675850789   -0.86237923207611    1.94843315358825
H           1.42093228809316    0.83779598127750    2.10116004257087
H           0.98870671858493   -0.86934108810171    2.64453319559326
N           2.91557055371622   -1.31815882669294    0.38599838102078
H           3.82337649446801   -0.96235800950210    0.11457189406562
H           2.21134736200411   -0.82153345641120   -0.15280860142993
H           2.87468356644749   -2.29636878426971    0.12920604468136
