    23
        -45.35981435  Gyration_radius:  2.32614999734 Dipole_moment: 5.668
 S          -0.96401948019575   -0.41513793965826   -1.87285919259493
O           0.24007201696712    0.56796940207308   -1.78062096332223
O          -1.79424400074165   -0.22223488006547   -0.70641760090287
O          -1.58008475760620   -0.26746994885890   -3.13592826339879
O          -0.26525991124105   -1.79802255333447   -1.72782512750614
O           0.62245841965802   -0.94912725387268    1.95285130526913
H           0.94921222795987   -0.93595161279833    2.85304385064433
O          -0.88181239832517    1.06941983220747    1.48609026362687
H          -1.38421942782311    0.70978518473876    0.73305384941177
H           0.03415192437164   -0.12905441710399    1.84746741914654
H          -0.34186181689639    1.80086905950729    1.10361190789054
O           1.96325508910605   -0.67281638020653   -0.33716733129185
H           1.56976006202518   -0.78183118920311    0.55825835852642
H           1.94913010480137   -1.53951401956850   -0.75271977582992
H           0.95445204274531    0.14338489473517   -1.20871468932729
O          -1.12713666842900   -2.49007678827688    0.56347198527839
H          -0.58318839416662   -2.20038799807782   -0.85153989903778
H          -0.48421204613070   -2.10021130330738    1.18885236159434
H          -1.82917481746061   -1.82993163387759    0.47145576307398
N           0.60865900624890    2.87726775543096    0.10396772130666
H           1.60203074753488    2.93704934597873    0.28935838972056
H           0.25165905760448    3.81968934445644    0.01005116493296
H           0.49037302999345    2.40633307908073   -0.78774150720641
