    23
        -45.36265656  Gyration_radius:  2.4552651415 Dipole_moment: 3.941
 S          -1.11139067943716    0.04594472819249    0.03160254918801
O          -1.59670681923901    1.25973506104317    0.61157970228606
O           0.13098343407654    0.36912230863693   -0.83937945772073
O          -0.73362733617664   -0.99625413497895    0.95352817825972
O          -2.12938961345205   -0.50922966249981   -0.96620244522048
O           1.79734861388040    2.34163132326868    1.75135847770503
H           2.62636893808030    1.86229377938889    1.72328989980165
O           0.38653855173079    2.81849104823143   -0.43445041406387
H          -0.50137897217776    2.87940684181475   -0.05659514774258
H           0.99940354116611    2.79075695830717    0.34268891073494
H           0.30129622239795    1.39738851765427   -0.78428036330792
O          -1.32453247137114   -2.89098496826469   -0.92946526708865
H          -1.92613472939040   -1.51659767309473   -1.05826864085153
H          -0.49594061943832   -2.79563772490466   -1.47136374114846
H          -1.05181762126834   -2.75607339753650   -0.01177803467128
O          -0.02811190892609    0.74868044295464    2.89654914730458
H          -0.83169269839415    1.27082101545099    2.81503016793517
H          -0.18321701134405   -0.02628547607796    2.33035108190234
H           1.16923084316673    1.78066789901581    2.26218248587839
N           0.92160056161599   -2.17186163497039   -2.19890375122457
H           1.81551058116949   -2.56219988446566   -1.92867955965197
H           0.86615856051118   -1.22659460656493   -1.82972921243310
H           0.89950064281064   -2.11322076054351   -3.20906459579252
