    23
        -45.36265641  Gyration_radius:  2.45589429825 Dipole_moment: 3.932
 S           0.80009797888597   -0.77007423635012    0.04641040785176
O           2.31462735051381   -0.58409552421695    0.15510316487250
O           0.39274480445567   -1.94589076009889    0.75114875446977
O           0.21596937906967    0.47300424016238    0.76714555364429
O           0.41050330311420   -0.68875822184188   -1.33946583807990
O          -3.18556497644316   -0.86983257959387    0.95385157206946
H          -3.61792477446870   -0.11520984017485    0.55207979052869
O           2.59091715236687    0.87430651629128   -1.87414895561097
H           1.83692625124673    0.41751110143304   -2.27126436702483
H           2.22739470944925    1.72779599433514   -1.51562712038975
H           2.59291199674254    0.01036906130140   -0.64113567680254
O          -1.83175707176084   -2.15560953754246   -0.96844746865687
H          -2.77741765148014   -1.38077101330412    0.21727847152719
H          -1.11487253706859   -1.58761694800425   -1.29821595554513
H          -1.38269250907660   -2.84673909286362   -0.47293883807795
O          -1.11925180278341   -0.59900978299008    2.58258892500263
H          -0.67929757185576   -1.44893844179264    2.44472381606327
H          -0.33029509565900    0.13757453793734    1.59099664281328
H          -1.99064551759905   -0.67820671765719    2.11931272385786
N           1.32258256448430    2.87549467514867   -0.62456109284039
H           1.86537471380651    3.47745969499372   -0.01847113413562
H           0.80664635252458    2.22526304389356   -0.03810753428177
H           0.65302295156136    3.45197382089285   -1.11825584125793
