    23
        -45.36265657  Gyration_radius:  2.4550484448 Dipole_moment: 3.932
 S           1.08691667734876   -0.23213418850917    0.03970145095444
O          -0.32616008981261   -0.80606666789461    0.32250395321263
O           1.84707171951956   -1.40662768297028   -0.57910223354454
O           0.94089100368586    0.81056969583631   -0.94552576686130
O           1.68734670737883    0.14856428908442    1.28048782459857
O          -1.35371115579742    1.98094976528112    2.45507195394761
H          -2.16500450002020    2.17256426179099    1.98296301822964
O           1.09207766377915   -1.04444211828714   -2.94998373410520
H           1.04060820842023   -0.09784469034950   -2.76002612310242
H           1.63607502480569   -1.38996706034685   -1.58891659341727
H           0.15897197834737   -1.38171215172250   -2.88064965883275
O          -0.49223276344988   -0.49648680652767    2.79312442187239
H          -0.48416541683399   -0.77307764004516    1.35384767787366
H           0.45898440060692   -0.33967637036228    2.86747817832697
H          -0.90726562207539    0.40223720430341    2.81555831710121
O           0.69255756771321    2.76141991801725    0.91102557025685
H          -0.62233654369636    2.36307917564907    1.91726544017840
H           1.45433534174827    2.47121827976350    1.42123549480393
H           0.71795495981655    2.21778267421155    0.10533938695824
N          -1.39436795399850   -1.78966904750881   -2.28946598361885
H          -1.61340731610392   -2.77778088807920   -2.29056117537649
H          -2.19569320301400   -1.29232389311133   -2.65684385904033
H          -1.25944668831387   -1.50057607822270   -1.32452755039483
