    23
        -45.36265647  Gyration_radius:  2.45570102649 Dipole_moment: 3.933
 S           0.50548095676362   -0.88151084924663    0.45053881524614
O           1.84053257923940   -0.95348886778091    1.19393397790247
O           0.69019671391101    0.29658722056591   -0.54130231156141
O           0.28757137421515   -2.08247267458970   -0.29475237270026
O          -0.53391719740329   -0.50745741366832    1.37733106334024
O          -2.27950080760031   -0.51438237867536   -2.52020694100292
H          -2.67616255322792    0.35631621933298   -2.47124272212620
O           0.33554617857334   -0.84889299526320   -2.72977773803269
H           0.43064513253345   -1.72045359479951   -2.32191074532767
H          -0.64018648425787   -0.71225265385674   -2.82847260698472
H           0.61169893651103   -0.08519813320053   -1.50979831104053
O           1.30737211764168    0.76612853475705    2.94915522918707
H           1.39124978343167    1.59253431651950    2.40229545755205
H           0.37874897799859    0.50489144967280    2.88406408430612
H           1.77485811963904   -0.28339329937644    1.97574943126500
O          -2.49182645728220   -1.64676142932379   -0.10070855627485
H          -1.95614132428841   -1.15025310246738    0.54108593413731
H          -2.45490100105722   -0.94879721683886   -1.65379349624748
H          -2.01715841892294   -2.47442077533031   -0.22139194715173
N           1.38263614212270    2.69927185490639    1.09638771167495
H           1.13100864789349    2.04718404600436    0.35852785138200
H           2.28234902459637    3.10032202541261    0.86371909579681
H           0.69989957893402    3.44649970724375    1.10056909665426
