    23
        -45.36265656  Gyration_radius:  2.455322783 Dipole_moment: 3.934
 S          -0.15933631356187    0.29792357731295   -1.05951584589705
O          -0.49815817963857   -0.78107449277677    0.00213306029773
O           0.84905852419875   -0.21553395235902   -1.93389649520480
O          -1.47176439285413    0.49466864908062   -1.82036476475501
O           0.16613644862500    1.51210269531984   -0.35302803514271
O           2.99150443528278   -1.44235144003077    0.87516251849820
H           2.88501839707685   -1.31805283773425    1.81913076862978
O          -2.48445134974593    2.17972242573733   -0.25327021655254
H          -2.01662096316815    1.18907937005448   -1.28565547409772
H          -2.73845391493548    1.57745994620167    0.49653535350570
H          -1.59057053800614    2.48615147441222   -0.04853701426027
O           1.11839310809232   -2.58379435545648   -0.60261969849926
H           1.30079881455693   -2.17306507410155   -1.45876771173382
H           1.87641272486039   -2.32277568515447   -0.02155761514091
H           0.09506302888474   -1.61761651459241   -0.19154032107929
O           2.81406161497621    0.96437367692269   -0.29009527845097
H           3.02142333773444   -0.54143798394179    0.47810979374251
H           2.86338542486669    0.74195613894404   -1.22443564976552
H           1.91659136331669    1.31908094290840   -0.17135167394088
N          -2.77193341001759    0.28788065487009    1.62054999191690
H          -1.99694597007739   -0.25034132192393    1.24289028005054
H          -3.59968029084989   -0.29367816339578    1.58842444822199
H          -2.56993191957868    0.48932225971417    2.59169957964864
