    23
        -45.36265655  Gyration_radius:  2.45553151285 Dipole_moment: 3.935
 S          -0.45635184170992   -1.01406437215841   -0.01296501287484
O          -1.05175540491757   -0.29726444745092   -1.11325737114613
O           0.48262417245888   -2.03638456320423   -0.35704208097156
O           0.24864210954590    0.02818056920960    0.89412047708430
O          -1.56433500927676   -1.58720775449354    0.87258008703333
O           3.15399618027361    0.40852091190462   -1.29918801119323
H           3.10839057819932    1.36310765912202   -1.36655607594483
O           1.11247411303220   -0.60913223535390   -2.70564023819813
H           2.45843303460164    0.05404550699960   -1.89983262625808
H           1.19420081304091   -1.55095352009508   -2.52884588400626
H           0.27120519428291   -0.35571447110077   -2.28926914763461
O          -3.28831267999991    0.17796968235195    0.38877215490969
H          -2.89917299721768    0.27939047543583   -0.49045807722664
H          -2.37256462825972   -0.95332910818715    0.77432155255617
H          -2.91831184084728    0.92446970258201    0.93206032386743
O           2.57789908322213   -0.86673177018469    0.94542923361843
H           2.95728009207202   -0.37684236354971    0.17322248104579
H           1.23648308344910   -0.28071829824341    1.02816687302484
H           2.28972745372956   -1.71853283873415    0.58996755424003
N          -1.84703802266426    1.97980691429336    1.74881326738814
H          -1.96818771364979    2.02926122113982    2.75246131064901
H          -1.74215837793716    2.92433315155509    1.40044273221297
H          -0.98316742136685    1.47778992818534    1.56269645784904
