    23
        -45.36265655  Gyration_radius:  2.45577381448 Dipole_moment: 3.936
 S          -0.60006392143920    0.86134131024809    0.37144484322908
O          -0.91324536010574    0.75472507279079    1.76272051715578
O          -1.46158480278585    0.14259269602204   -0.53417098122854
O          -0.54263831245229    2.33127673850082   -0.04846068603416
O           0.84592125394738    0.34838514992084    0.14300090674314
O           0.36018303272319   -2.75466925965697    2.02307704602700
H           0.66775087118249   -3.34485443868398    1.33398930524460
O          -2.02494658604295   -1.79016273796138    1.27224858402367
H          -1.91964769291008   -1.23321059014706    0.48232604767816
H          -0.55530810129607   -2.49002359670181    1.77433369819270
H          -2.22371005002946   -1.16951736794061    1.97947925579104
O           1.47007427118542   -0.39087314459608    2.44372468188918
H           1.18136237445311   -1.33660840918230    2.39443518846716
H           1.23148136784787    0.05576461859100    1.06755018660651
H           0.72196717690871    0.08393117569137    2.83082802824108
O          -0.92890202724439    1.96266014066289   -2.50564202732531
H          -0.69462723416959    2.34807023710684   -1.06877015365568
H          -0.03506621062852    1.61115637510788   -2.76404669613960
H          -1.45738998761835    1.18563107238278   -2.27836194589942
N           1.48885741214018    0.83319490413469   -2.73566522025928
H           1.48224432303422    0.54355790178734   -1.76157130773053
H           2.28748867829254    1.43913904900081   -2.87488331651419
H           1.61979952513027    0.00849309291248   -3.30758596450499
