    23
        -45.36265651  Gyration_radius:  2.45540321882 Dipole_moment: 3.933
 S           0.34238823417211   -1.05728484166947    0.02336124784208
O           1.38535547549184   -1.27795368029596    0.97657751905703
O           0.74864522046954   -0.53671262070060   -1.25849428077643
O          -0.46421330944836   -2.33995733563538   -0.18706479316800
O          -0.68387825727983   -0.06218674862992    0.62543774514551
O           1.84507086021446    2.36922658348222    1.66765743602452
H           1.44563809023414    3.12516031365679    1.23535851846511
O           2.87308604467013    0.78822318634167   -0.23614003583885
H           2.15472219426870    0.42833896445631   -0.78373499425156
H           2.29991116331979    1.85407776243454    0.96202213503867
H           3.18784581981958    0.03563443760731    0.27309933742791
O           0.38925311985307    0.48084726291634    2.81217316743983
H          -0.35500342925333    0.19699573775842    1.58146199078219
H           0.99264644838068   -0.27090075434958    2.73629589604234
H           0.92115614562592    1.27047308240977    2.54031314545238
O          -1.39702327532407   -1.74896151665512   -2.44582464653217
H          -0.59385680629618   -1.23778314529022   -2.61423154761111
H          -0.91916455882802   -2.24976325559281   -1.10887774386936
H          -2.08420084735619   -1.08391238369695   -2.17251103084202
N          -2.93127003821967    0.14381194668948   -1.33343483175542
H          -3.82769204197324   -0.13013453027927   -0.95165050011429
H          -3.04567731390223    1.04337278265652   -1.78313242609700
H          -2.28373891870248    0.25938874245245   -0.55866132789931
