    23
        -45.36265655  Gyration_radius:  2.45509175507 Dipole_moment: 3.942
 S           0.25999003889044    1.01048588910869   -0.39002191188800
O           1.28372480965814    0.12353633601858   -0.88424945949298
O          -0.50618086152001    0.25813116726776    0.72948374324404
O           0.91879137783591    2.18466077632414    0.33631032448426
O          -0.68263466223555    1.48929531902977   -1.35302638007980
O          -2.46257731474417   -1.79145337230488   -1.57996631364344
H          -2.23314172224341   -2.63276966297048   -1.18328446020649
O           2.97537520382703    0.95514561437875    1.09873652184908
H           2.90548032501796    0.40395227149612    0.30749176908122
H           1.80985399424987    1.82861573064708    0.71521987109780
H           2.58416737807160    0.41459534142601    1.83625543951175
O          -2.85053600323445    0.37857781018280   -0.11834364147241
H          -2.61515605810666    1.06279529305942   -0.75969517870466
H          -2.87807498069260   -0.46527122051155   -0.63546323887244
H          -1.52352236261641    0.29275746228168    0.49974578590897
O          -0.29019994104841   -0.86773532642364   -2.84832460935905
H          -1.68610737225076   -1.51825902885644   -2.12094826902556
H          -0.58306466850338   -0.00129693740952   -3.14591383590896
H           0.40869682284464   -0.67847487989546   -2.19949230274991
N           1.50536857385190   -0.49004002128562    2.80941954941272
H           1.31016747261258   -0.09593499784374    3.72101174208511
H           1.67677703550467   -1.48049258800786    2.92814452382328
H           0.67280292488619   -0.38082099571942    2.23691029094283
