    23
        -45.37330137  Gyration_radius:  2.31142713832 Dipole_moment: 5.658
 S          -0.98705530702557    1.03872627907287   -0.78242116700555
O          -1.00181219719759    1.13241784115859   -2.23403620607998
O           0.39207275672790    1.16866671991230   -0.29587476420147
O          -1.80749080209722    2.23544002008405   -0.21362998147099
O          -1.58722068584490   -0.19451230476625   -0.28283936224857
O           1.42242392233290   -1.93999570695206    1.45620774386723
H           0.98033165637577   -2.54957338680245    2.04982099662772
O          -2.05159578646897    0.97563448288400    2.07192869052723
H          -2.14070461556939    0.25890426411183    1.42157209637963
H          -1.14697818052096    0.88646096831476    2.41285754010779
H          -2.00917167217637    1.98441546976438    0.72321285135092
O           0.70010533785563    0.58094605284415    2.17865959109619
H           1.37059419508257    1.17239460190269    2.52473953744555
H           0.58971979858376    0.82689300026879    1.21529628075986
H           1.19279789008330   -1.03996490201018    1.76747346032263
O           0.20985194624986   -2.00574343016657   -0.94133422441157
H           0.85881300728635   -1.07271969430470   -1.88528835150088
H           0.73682188779623   -2.05966351115912   -0.11096059144299
H          -0.57752909550697   -1.46414766279703   -0.70150023424985
N           1.18056904962024   -0.20671542162835   -2.49020018312001
H           0.27965992728940    0.37679505274456   -2.57682279613484
H           1.58385036335530   -0.45834302133206   -3.38670078208983
H           1.81194658376279    0.35368429886368   -1.92016013453432
