    23
        -45.37330141  Gyration_radius:  2.31156274265 Dipole_moment: 5.659
 S           0.72479470318943    1.40110539820389   -0.41943280722850
O           1.74915622909698    2.25929694803790    0.38255231645164
O           1.19909991557164    0.01186987513460   -0.41068619052518
O          -0.56725359122928    1.50054703405970    0.25224943697920
O           0.69594384350682    1.89685219065445   -1.78682217135331
O          -1.44820419283575   -2.23016462037826    0.91588317141612
H          -2.09190062969530   -2.15830768587796    1.62288091463317
O           0.65369795198721    1.46070341984922    2.62621404091489
H          -0.11423875128422    1.57720992408992    2.04193819524743
H           0.79727319354915    0.50101273336677    2.65404073781376
H           1.53548224455598    2.08903454799319    1.33469054910387
O           0.89535536297390   -1.19446699087288    1.82928354315081
H           1.64764121322067   -1.77917709846688    1.93561463634438
H           1.03244032191270   -0.72938426835267    0.95438600882752
H          -0.60089932048201   -1.90315796789364    1.28309168505911
O          -1.97677095919430   -0.37225271599436   -0.95302383692974
H          -1.00042381911397   -0.44664260115881   -2.06047264035782
H          -1.84423151600128   -1.13215907044966   -0.34065259165902
H          -1.60817665178340    0.40353271580738   -0.47045396002084
N          -0.13562258502751   -0.34405805861220   -2.73887477441995
H           0.59563680441015   -0.97105890793199   -2.40767661407304
H           0.22230812029617    0.64952026482423   -2.52732232393811
H          -0.36110789762370   -0.48985507603397   -3.71740733543387
