    23
        -45.37330140  Gyration_radius:  2.31155356055 Dipole_moment: 5.659
 S          -0.92527982022336    0.63121058810493   -1.18807609039969
O          -1.45231033252913   -0.19250493802140   -2.26508602011870
O           0.52354068388523    0.42311953447975   -1.07452667467652
O          -1.16398010243882    2.12505309237919   -1.56253755159792
O          -1.57594975458633    0.38045273013286    0.09424550765425
O           1.34916105849169   -1.00113956338046    2.25585603732919
H           1.02547964774118   -0.84961801992270    3.14560264229751
O          -0.84180319100819    2.80087528339098    0.94935860810510
H          -1.05937213139858    2.62150236365614   -0.71164743238821
H          -1.33414170230500    1.96538757943620    1.01393323364006
H           0.07469408051342    2.56258061490053    1.16323858279134
O           1.57267319287098    1.42131838386382    1.03899851362781
H           2.44471901781735    1.73652886352842    0.79551183763976
H           1.17685105338870    1.03993541137342    0.20317397878300
H           1.47413993744667   -0.11565247365589    1.85588741961230
O          -0.64160076556428   -1.99518113332679    0.74844438394785
H          -0.18362266537138   -2.23713431751658   -0.63554695586972
H           0.12532616797391   -1.74769232286844    1.31467745967632
H          -1.12944044621849   -1.15095434420300    0.60697817129902
N           0.08977714918873   -2.17424266357291   -1.70341515134849
H           0.05986075887690   -3.06493817602848   -2.18867355366197
H           1.00189441233987   -1.72493311711606   -1.76510966767736
H          -0.61061625888308   -1.45397339563683   -2.09128727866460
