    23
        -45.37330141  Gyration_radius:  2.31142230318 Dipole_moment: 5.658
 S          -0.91891117686857    0.99620876313473   -0.90906885140030
O           0.46001350060354    1.10510174526019   -0.41707917081238
O          -1.67750660862902    2.29184632494958   -0.49083754918143
O          -0.91316801831724    0.92753783778788   -2.36218771864098
O          -1.59209875899627   -0.13901758435095   -0.28566391925831
O           1.29699777605756   -1.83935955341640    1.68605459418466
H           0.81527327516014   -2.35388684013149    2.33612093979532
O          -2.01766104159341    1.31050321467278    1.91577813260379
H          -1.90394265783366    2.15825765000093    0.46428467492226
H          -2.13927230263913    0.53117950375150    1.34787496965504
H          -1.12317654004215    1.21137936491690    2.27988792498916
O           0.70664864861394    0.78184791740155    2.11246667681355
H           1.40468680269004    1.37151797329406    2.40256300891734
H           0.62111973702044    0.92423617485560    1.12601660345892
H           1.11417412429530   -0.89914872537897    1.89151273493776
O           0.10867213921848   -2.10714703748559   -0.70998099747937
H           0.81929164823883   -1.32134547409122   -1.74053816201984
H           0.62284122290226   -2.09661103840034    0.12994167965246
H          -0.64992342523737   -1.50051905679223   -0.54488654521140
N           1.19479758004976   -0.54633970506713   -2.43142795604581
H           0.32823401413379    0.07121983511703   -2.59741187225097
H           1.59366229952998   -0.91712265390022   -3.28761372392922
H           1.84924776164014    0.03966136387418   -1.91580544369801
