    23
        -45.37330133  Gyration_radius:  2.3115631665 Dipole_moment: 5.663
 S          -0.11196300403677    1.38746342166381   -0.85429015797908
O           1.00699300816153    0.46868390346108   -0.61128922006503
O           0.35791543347183    2.82266921517374   -0.46893175168072
O          -0.44283507101256    1.38755907095379   -2.27088265749781
O          -1.24590277863263    1.04261785996047   -0.00235061767996
O          -0.06376092031036   -2.27817303163036    1.64710929916215
H          -0.62325845365601   -2.32628978467499    2.42432598987051
O          -0.08587832994626    2.28325149023809    2.05769262070490
H          -0.82727883136562    1.84163144697773    1.61050459762098
H           0.52950508359712    1.56564858550630    2.27865625127351
H           0.29888858015884    2.85407933683332    0.51937913716035
O           1.45032379722372   -0.02853119372816    1.86269461517578
H           0.50934570795332   -1.49341384750656    1.77114080996350
H           2.39941306910989   -0.11856513618938    1.96386818811491
H           1.29616157831140    0.16933327838311    0.89437832438298
O          -1.54382379493807   -1.53391023808671   -0.46942397866809
H          -0.70986331745289   -1.44704296589820   -1.68633893527077
H          -1.01715795974079   -1.92198138949754    0.26680882153641
H          -1.60584634878590   -0.57478623881215   -0.25278053410294
N          -0.04568115730120   -1.14307295187060   -2.51430566282548
H          -0.23946896329063   -0.08764333658051   -2.60606865597132
H          -0.20121792466708   -1.65620200308246   -3.37577827930037
H           0.91539058714630   -1.21332548159027   -2.18411823392236
