    23
        -45.37330138  Gyration_radius:  2.31166963503 Dipole_moment: 5.658
 S          -0.59308723875807    1.51939641430216    0.05363056307535
O          -0.80814434814831    2.29882530517466   -1.15580228811670
O           0.77843284769754    0.99596135440884    0.06305366725523
O          -0.74704252748795    2.47438462781666    1.27568253803901
O          -1.55292033920106    0.43104455110406    0.21077991072334
O           0.72847656119239   -2.71703554256717    0.03695490464173
H           0.18021659935661   -3.37945158124457    0.46133377483262
O          -1.10124519717461    0.40318598610549    2.84263081660906
H          -1.58194810072235    0.14723155539113    2.03765991867780
H          -0.26902160813868   -0.09498832147721    2.80041550217155
H          -0.87486362502035    1.87489119369482    2.05387345673981
O           1.22625986119485   -0.76703941598048    1.86724978080337
H           0.94097110521942   -2.05505341766932    0.72704351458155
H           2.12641840009126   -0.63496951225848    2.16960857948443
H           1.06769916204127   -0.06940484717296    1.16802615528571
O          -0.78310130543891   -1.26972688689569   -1.64950238341347
H           0.02272403620009   -0.22911859120002   -2.32189413051463
H          -0.19427753785235   -1.86465472178602   -1.13047104029125
H          -1.23035095261347   -0.71011929132013   -0.97314160792606
N           0.56276358881752    0.68673406144972   -2.61923004495215
H           1.45513677624543    0.69609586504412   -2.12821859748035
H          -0.02187918057831    1.47020080266520   -2.16691119864496
H           0.66878301307668    0.79361041243056   -3.62277177157419
