    23
        -45.37330142  Gyration_radius:  2.31144093292 Dipole_moment: 5.658
 S           0.28248856753411    1.54501225451789   -0.44454879515686
O           0.00229956652045    2.86232965282747    0.33965706281849
O           0.60140531280241    1.89873027436010   -1.81909718678670
O           1.36867568360738    0.84251218582124    0.23167084869146
O          -0.94306986915321    0.73718158592213   -0.41695898129142
O          -0.21472089855854   -2.63522031301948    0.95807482753865
H           0.34271108272341   -2.96078681766011    1.66709518734184
O          -1.42973127405308   -0.36798447139653    1.84261328685785
H          -1.25796937733926    0.06997082810074    0.95980198711625
H          -2.38192505896642   -0.36760181228895    1.95418833383458
H          -0.68287289843485   -1.85249293647307    1.31564080299547
O           1.32924389517508   -1.51885590133685   -0.93741978280879
H           0.76271687192040   -2.02894243544030   -0.31370676384295
H           0.50602592943165   -0.99682480738010   -2.04794540112516
H           1.51554187490267   -0.67247545409844   -0.46868402067932
O           0.39177912019980    1.59391803878814    2.60015643357643
H          -0.30928797903041    0.92364694036426    2.64144804737061
H           1.06738140954577    1.20714861202700    2.01824828123635
H           0.07230739531027    2.61064965500837    1.29524577223945
N          -0.11831729149985   -0.39657594151288   -2.73282240489312
H          -1.07885966921718   -0.43949027748967   -2.39654688681888
H          -0.03390583168408   -0.66491841659752   -3.70775818398121
H           0.20808344825898    0.61106957694622   -2.53835247423013
