    23
        -45.37330136  Gyration_radius:  2.31151284458 Dipole_moment: 5.661
 S          -0.13757731448110    1.19206370689506   -1.10738517841037
O           1.18522097546358    0.59950636766669   -0.93539494206388
O          -1.05779010013263    0.69383559451845   -0.07771145848264
O          -0.00067924850422    2.73295163204413   -0.91839517247393
O          -0.70393547856132    0.94866687797617   -2.42503582070358
O           0.56630469866713   -2.00978865896252    1.88434984159687
H           1.45260396553819   -2.15027776428210    2.22230212295870
O          -0.05981797946878    0.60757555111718    2.28027766224623
H          -0.46502229746488    0.65009441110578    1.36660740419914
H          -0.76630909898140    0.82605648868246    2.89042545992050
H           0.34116958025502   -1.07798788535208    2.08618060937298
O           1.71790591718304    2.33726611926936    1.02054777525993
H           1.22096184984409    1.87128044101519    1.71223900920540
H           1.95472822630355    1.64555959772290    0.38015341736706
H           0.62897693444768    2.84232017584221   -0.16143257747714
O           0.63866492583805   -1.97505978776938   -0.80211387763808
H          -0.71130312316880   -1.75568445311510   -1.36174698496524
H           1.00287672786886   -1.06589381457774   -0.90936159386653
H           0.57781503015695   -2.10560133611076    0.17221599464324
N          -1.65794761962000   -1.34501419697221   -1.75449574914253
H          -1.35109963730722   -0.41616203609462   -2.20480069418031
H          -2.23672949865917   -1.08160816984134   -0.95870147643275
H          -2.13901743520790   -1.96409888077737   -2.39872377093160
