    23
        -45.37330138  Gyration_radius:  2.3115687177 Dipole_moment: 5.658
 S          -1.30769120194920    0.95396829894230    0.19899179335647
O          -0.00308540530571    1.56814637989827    0.42524537626680
O          -1.16447776834728   -0.49468667019156    0.01007604607043
O          -2.17349528184400    1.18484195036085    1.47424332135927
O          -2.01734689241771    1.52483578295292   -0.93549321769470
O           2.42818443548081   -1.40788491346250   -0.18230537557949
H           3.21689165348671   -1.11289678896199    0.27622320970005
O          -0.06332336640330    0.77844367347031    2.97529234600124
H           0.30058192327917    1.27878934004088    2.22576407286565
H          -1.55167898913812    1.04922117336106    2.23335816497390
H           0.19675066159656   -0.14137564260795    2.80571551356248
O           0.43854282117729   -1.62170703205873    1.66074921900057
H          -0.20077537604283   -1.19563298359528    1.02014899904723
H           0.07760931705660   -2.48886240353455    1.85288059396148
H           1.74190607923674   -1.53089362086896    0.50581356478559
O           1.41081553215466    0.63964748790595   -1.59575116658082
H           0.18652118876594    0.22946837562881   -2.31495140085064
H           0.99745349972285    1.12217771768829   -0.84277592108736
H           1.83559632548228   -0.14750513548620   -1.18351322070104
N          -0.84287060858377   -0.00870416537092   -2.63500114211752
H          -0.98605897701550    0.05291207128921   -3.63763039577777
H          -1.43863593741888    0.69326579529977   -2.07586068252974
H          -1.08141362297437   -0.92556868069014   -2.26121968801707
