    23
        -45.37036584  Gyration_radius:  2.38249105941 Dipole_moment: 6.214
 S          -0.74340234640620   -0.26041437744142   -0.68450504822121
O          -0.91067020462358   -1.07680777733485   -1.88322708075690
O           0.34478717596828    0.70708381464077   -0.85374873056916
O          -2.04994733283734    0.49729567583514   -0.44831711517214
O          -0.47108841794774   -1.12157237654401    0.48025756436090
O          -0.74622828252014   -0.09766688500237    2.90599032660430
H          -1.40074928595889   -0.65593692848069    3.32905936514021
H          -0.56097915546182   -0.50896054566073    2.03337530087781
O           0.36184571910890    3.07208273133468    0.35433439365739
H           0.46404418253404    2.20221658345628   -0.08753424494033
H           0.16196492615320    3.70109141067123   -0.34092870056947
O           2.55828330494902   -0.56465872083327   -1.44054625713366
H           2.85016865009742   -0.20149205248868   -2.27856058930404
H           1.79146290216604   -0.00388009351373   -1.15938983115162
O          -1.75964485437677    1.98135213765752    1.56397088481991
H          -1.98118478812063    1.12247196610403    0.38242699092879
H          -1.39342355066662    1.34830928772335    2.22050968622928
H          -0.99933173711228    2.53394207369000    1.27744304541442
N           0.92998336005176   -2.59867820728731   -1.08310630101024
H           0.55612263722131   -2.30466327530950   -0.14777357147127
H           1.07644801026220   -3.59640134217057   -1.18829687764195
H           0.14044019398355   -2.16687974259125   -1.68087574444458
H           1.78109889353474   -2.00783337645351   -1.27055745564761
