    23
        -45.36276732  Gyration_radius:  2.43149524911 Dipole_moment: 2.085
 S           0.40851975583827   -0.82036855479692    0.65915901259163
O           0.10083248900295   -1.29085276035731   -0.70367821775101
O          -0.81116886998283   -0.54418875345625    1.40561421717357
O           1.13688451977241   -2.01406920315428    1.34444341324732
O           1.30690107640752    0.31940999966450    0.63037477161687
O          -2.72302211532970    0.72048097948763    0.24838443843616
H          -1.97965159600893    0.31515264427941    0.78047628139697
H          -3.52581576668592    0.29189208181297    0.55272582455489
O           1.89250832210764    0.45286313734296   -1.92158764065869
H           1.80687511036678    0.56428218453487   -0.94758268571391
H           1.67686463894495   -0.47680754690296   -2.05255224907700
O          -0.20585599183135    1.64035964400220   -2.89998857896836
H           0.65699199535041    1.29999914188723   -2.51828034844116
H          -0.09247876604329    1.66021888102821   -3.85202946193621
O          -1.71844772375528   -0.12585134409654   -1.90736254063874
H          -0.96729382462811   -0.70625164302278   -1.42412972775498
H          -2.23233924684961    0.28575495500454   -1.10945610896995
H          -1.18393262573757    0.64114983842729   -2.35649262908978
N           1.33995742912628   -0.39403562132689    3.38199479613586
H           1.34358779192010   -1.64149208761587    2.24013454087599
H           1.59929263884336    0.28612426067662    2.67307224415383
H           0.34408128444310   -0.28728558421053    3.53388057302785
H           1.82670948472097   -0.17648463921752    4.24288007579515
