    23
        -45.37376553  Gyration_radius:  2.33179364202 Dipole_moment: 1.659
 S           1.01045376989213    0.08012983662499    0.52686948232464
O           1.15460156546032    0.95391561180611   -0.63152587134176
O           0.86637962329047   -1.32339592962636    0.12506166952353
O           2.34056268560361    0.20136733740884    1.33524233508255
O          -0.09365835877877    0.49805382606960    1.37136778072005
O           0.43770521439125   -0.67234095980205   -2.74058937679028
H           0.96146312051241   -0.13652013595934   -2.12807249631602
H           0.42552844189124   -1.55018670168590   -2.35349360226895
O          -1.79975975099393    2.45051371543053    0.86186317238670
H          -1.42375144474861    3.27099918056132    1.18363788822516
H          -1.19556704949705    1.73789631866532    1.17681778339148
O          -1.75050137581606   -1.16304460954354   -0.21592856124615
H          -2.00171257013663   -0.87390428259143    0.66658919898642
H          -0.79665865618820   -1.38159649917526   -0.13674942066899
O           2.00233620608967   -2.23266668207869    2.31100060594198
H           2.69463415639888   -2.86871771850390    2.11692992913834
H           2.35139447989150   -0.58240054383944    1.92344633523978
H           1.45709314622913   -2.15729635614825    1.50166012523822
N          -1.35223335478227    1.16965155543943   -1.41129454967101
H          -1.56947706438695    1.33463507878629   -2.38882861152897
H          -1.64869509685865    0.19840859674073   -1.10294990387240
H          -0.30801007593165    1.18789285521218   -1.24716217116284
H          -1.76212761045571    1.85860649668099   -0.74389174085346
