    23
        -45.37376541  Gyration_radius:  2.33149898452 Dipole_moment: 1.660
 S           0.34452413036827    0.08005489723302   -1.08680553170266
O           0.71939159794786    0.21873482471509   -2.59604258576629
O           0.96036936121210    1.20551334927157   -0.37540647358778
O          -1.10080770536443    0.10724829401527   -0.95606275975645
O           0.89498691576648   -1.19559165123583   -0.64428872478014
O          -2.60840270568440   -1.77810129073554    0.11885864220621
H          -2.82190046258158   -2.41804400622804   -0.56160459048001
H          -2.15292284399529   -1.03674514638792   -0.34485278586686
O          -0.70278935218298    1.07758836654648    1.67569640135781
H          -1.53438026292477    1.18601265255850    1.20431444118171
H          -0.01522069220897    1.25232837063216    0.99703855441372
O           2.27269933220426   -0.52551343115048    1.64902124038671
H           2.07226056325518   -0.79776176183421    0.74224802329649
H           2.30621129871367    0.43290588782077    1.61821021699712
O           0.65426282715241    2.85482541121597   -2.39575248076573
H           0.76613997421521    2.48917096048267   -1.49477254911480
H           1.46780908566229    3.31884514520409   -2.60628710653656
H           0.60691868509848    1.17104579910517   -2.79771665227452
N          -0.42847801605053   -1.55831503105667    1.60446643535086
H           0.18971760334381   -1.57073225168612    0.74702209928990
H          -0.01164674057924   -2.09164557827091    2.36067245424000
H          -0.51321758880552   -0.52963791926036    1.85147745755594
H          -1.36552502463804   -1.89218589098025    1.29056625430196
