    23
        -45.37376530  Gyration_radius:  2.33148163802 Dipole_moment: 1.662
 S          -1.06793696994617   -0.26856674198547    0.30711427365668
O          -0.83080909818737   -1.09469545202173   -0.87076041835505
O          -0.20481588365521   -0.66722145773180    1.42432172333158
O          -0.91256981208594    1.14254050933717    0.00453775213623
O          -2.54458935972024   -0.53457793959225    0.73866715066645
O           1.82905295911535    0.83370503139532    0.64950440945395
H           1.17392861816472    0.23089442624409    1.06338668675520
H           1.39199179231205    1.69072376682182    0.64297370652354
O           1.51607766632941   -2.40684837507142   -0.25689019824368
H           1.62929291559811   -2.23707034420277    0.68067435903339
H           0.58180717599332   -2.22589921467770   -0.43257810693766
O          -0.10869648216760    2.16877913322509   -2.29409040288179
H          -0.87420395753383    2.27892314766120   -2.85973197476888
H          -0.46297448652685    1.90088046069262   -1.41386988580269
O          -1.94906398940741    0.07234327157270    3.24259132833905
H          -2.59892836804862   -0.21545494630807    1.66357819155216
H          -2.09993536581010   -0.61548016684635    3.89498888932072
H          -1.11503741940474   -0.15554221493820    2.78380158338273
N           1.35830946843306    0.01531631755831   -1.82780534774315
H           1.01284439930447    0.87501600145038   -2.30681753724640
H           2.01886009518266   -0.54011462518230   -2.36183687395584
H           1.75848454205212    0.30241521245235   -0.88772703623368
H           0.49891153995006   -0.55006579996861   -1.58403226208250
