    23
        -45.36280968  Gyration_radius:  2.42342756333 Dipole_moment: 5.919
 S          -0.51533995571596   -0.74847778174700   -0.54671378017408
O          -0.72548911167501   -1.21154758569597    0.79560797260907
O          -1.36626812424475   -1.59838123004972   -1.50651574612420
O          -1.07534290314291    0.67224230523830   -0.69963885836517
O           0.84813324527817   -0.74677133887510   -1.00563270434871
O           1.51046907216030   -1.67488256211201    2.29304362446067
H           0.63548181960797   -1.59854122488223    1.87548010559683
H           1.95841049834126   -2.39496791386896    1.84572421952572
O           0.19432358589302    2.37465846345398    2.19912595689228
H           0.34082175217506    3.23571540154631    1.80511442887214
H           0.88179725634911    1.77712135462626    1.81475336352244
O           1.93569210764313    0.72288187719242    1.05572713511344
H           1.98672575571004   -0.02334970736814    1.68209577320146
H           1.66286708155601    0.31896554889422    0.21873284140668
O          -2.01379581684298    1.12499823209817    1.56042158137352
H          -1.86305487344465    0.22464127029705    1.87474918033185
H          -1.25708848752423    1.66567214336842    1.91848642366824
H          -1.55797453625413    0.93978666044575    0.19473949705133
N          -0.29977014557544   -0.57916486101248   -3.60165808280562
H          -0.05611901439343   -1.06954153618794   -4.45209261429280
H           0.53455938638984   -0.44413188907974   -3.03761250082365
H          -0.68044828748480    0.32679524386626   -3.84061862854250
H          -1.07859029479583   -1.29372086014896   -2.44331919814283
