    23
        -45.36280966  Gyration_radius:  2.42362179364 Dipole_moment: 5.906
 S          -0.75254940634048   -0.45451605768283   -0.59637848710047
O          -1.66577057376016   -1.03130203158477   -1.69232488940958
O           0.61435919750179   -0.30913836810681   -1.27870578430918
O          -1.22019381696783    0.85852863892844   -0.23992314838897
O          -0.66043741724670   -1.40127620442787    0.47862202479381
O           2.87380060414451    0.06636485061466    1.49497136963934
H           3.48700022347691    0.68637453177965    1.09787782835684
H           2.03895727086439    0.57135034417644    1.65530137637224
O           0.57535944690217    1.36906809881186    1.78611243397661
H           0.10255059471079    0.84672441083654    2.46102486149973
H          -0.01827140256578    1.37071415729393    1.02067706123855
O          -1.07371441207929   -0.43794603934179    3.00029427486994
H          -1.98753317159074   -0.14792629605069    3.00495512560668
H          -0.94913274730310   -0.92934624076913    2.17042452494448
O           2.02627969208514   -1.90812689237855    0.00247143164798
H           1.27945829832543   -0.99910528021188   -0.84635958384879
H           2.46693557615169   -1.25087419217363    0.60834672889717
H           1.28177347503572   -2.26576696039820    0.50249758301472
N          -1.70136087204000    1.15568060426298   -3.02740904388671
H          -0.87169991409183    1.28994555874067   -3.58992377066082
H          -1.57299695069215    1.63034873475899   -2.13822610734397
H          -2.49587077736181    1.55389118852015   -3.51037224352011
H          -1.77694291714346   -0.26366654559007   -2.36395357637663
