    23
        -45.36280970  Gyration_radius:  2.42351660763 Dipole_moment: 5.920
 S          -0.06869206278072    0.83664383307259   -0.64756967160254
O          -1.36057829087634    0.24318830461064   -0.84579183263472
O           0.19680504735356    1.33911775464938    0.67406704238545
O           1.02818756352679   -0.17511314372509   -1.00622232772807
O           0.11780589913872    1.97662668219284   -1.66414164424507
O          -2.90243716133896   -0.10100340664576    1.38153035915944
H          -3.07896878881363    0.78748082387239    1.69561703518779
H          -2.49400863965932   -0.00266677765827    0.50447638239761
O          -0.40268876247678   -0.95612227950216    2.07550528644046
H          -0.03930244219378   -0.14023898463811    1.70076655162598
H          -1.36924175055399   -0.82548957245010    2.05439424940289
O          -0.04518568281438   -3.17551048303558    0.65620228267733
H          -0.19932398584991   -2.38397503564421    1.22815727819533
H           0.81552498797044   -3.51724463244748    0.90224975748018
O          -0.28833582402468   -2.15519196699777   -1.74063637145952
H          -1.13286681176884   -1.68880627994959   -1.70308163127007
H           0.57254426609523   -1.03911407297640   -1.39411335760115
H          -0.23254201514394   -2.67990988347889   -0.89522247850275
N           2.29133418167201    2.79498699106098   -0.58154561026430
H           3.09702105976482    2.24152716092769   -0.84100728937314
H           2.57751162113557    3.75736357901344   -0.45903869738610
H           0.99876943991098    2.42510305906549   -1.38851674308428
H           1.91866815176588    2.43834832071075    0.29392142018732
