    23
        -45.36866904  Gyration_radius:  2.27951648666 Dipole_moment: 3.056
 S          -0.26509601056245    0.13493505552080    0.80056655016922
O           0.41173202709766   -0.77472512478820   -0.15802097208698
O          -0.18269985237472    1.50485126765577    0.33778023189057
O          -1.62978424374985   -0.30440754095369    1.02744126152824
O           0.54687296572473    0.02998296748249    2.11972595351639
O           2.74271805561828    0.52109298026254   -0.45029877869042
H           1.99031506681728   -0.08655650768143   -0.31374831535625
H           2.91830465345128    0.91430229287866    0.40649425287209
O          -2.47612057405080    0.77348558032866   -1.22407505254874
H          -2.32888999121619    0.30595194723562   -0.36860042093831
H          -2.38457657763209    1.70684181362898   -1.01189508359804
O           1.06831856246906    2.01373494078605   -1.91021513524593
H           1.91535058969545    1.59887431721806   -1.63734755639806
H           0.59585196278737    2.11739913425450   -1.05255779279654
O          -0.33754871847869    0.02415526477659   -2.40079861254622
H           0.00311926118925   -0.47173772235287   -1.55285861703567
H          -1.27488068952032    0.32112673368412   -2.10767482003648
H           0.27996227013254    0.91355980654165   -2.37043403081179
N          -0.32524790410973   -2.38912845538444    2.43264568966638
H           0.35516413403236   -0.90774239422157    2.43083165714792
H           0.13852011346125   -3.01264970636356    1.78472852981836
H          -0.61023729538898   -2.91838559764815    3.24660011011130
H          -1.15114781558883   -2.01496103242529    1.97171095137440
