    23
        -45.37741742  Gyration_radius:  2.29873057221 Dipole_moment: 3.166
 S          -0.96248853980406   -0.76787356272265   -0.41663611603283
O          -2.14490099256890   -0.86348739869886    0.40174124686053
O          -1.28444327507701   -1.22618885043251   -1.87992891972119
O          -0.48188462461633    0.61811502833238   -0.50294133878944
O           0.11006909742410   -1.65544766086001    0.03314130585822
O          -1.38751309006565    0.71614232140452    2.34379564981726
H          -1.43879298644243    1.57102662162075    1.90962687476628
H          -1.80535591092809    0.08491011562756    1.70817318991429
O           2.01952559602655    1.23057995069512    0.20876810717863
H           2.46674690021999    0.56448640891346   -0.34432941607163
H           1.10470021836735    1.23276275853263   -0.13960593602953
O           2.38166384619700   -1.04494896259513   -1.22976874290795
H           1.55702137522664   -1.36980102685592   -0.81307969687799
H           2.32124481133041   -1.28232910364525   -2.15574812249671
O          -2.23727480846786    1.20144947150684   -2.37171416021722
H          -1.84223399248125    1.71651157243811   -3.07881717763273
H          -1.84195410958494   -0.51056784147188   -2.24305256945676
H          -1.62185988340620    1.24732856224745   -1.61269536789679
N           1.04085979364002   -0.30006380197591    2.07727703279468
H           1.56484595494035   -0.68101068916925    2.85719913621620
H           0.74594409998064   -1.03960118231752    1.38822879676265
H           0.13574210695537    0.16043464032877    2.37588548296346
H           1.60033842313918    0.39757260910083    1.48448073100665
