    23
        -45.37284357  Gyration_radius:  2.43242889163 Dipole_moment: 6.300
 S           0.48571842519586    0.85211506925638   -0.33731105768637
O          -0.95161561174675    0.98239224883897   -0.50713449638202
O           0.93412440707997    1.25457930389102    0.99107210154093
O           0.92366744849201   -0.53106818507551   -0.61671494183680
O           1.18938325188294    1.77078068377928   -1.36758021001232
O          -1.70061365981945    1.00735399448841    2.02248911045699
H          -0.98960012223688    1.57251249123073    2.33728430632751
H          -1.58447275129439    1.00665775242627    1.04700978458051
O          -1.27182698303122   -1.49173185537317    2.69637419736243
H          -1.52479523288676   -0.54013434052238    2.54454590506885
H          -1.86270006127659   -2.00609484181855    2.14329716187176
O           0.35570262211150   -1.11590074628021   -3.14877661168306
H           0.53609783888711   -0.98921406959058   -2.19285723210277
H           1.20958364171864   -1.24422647981114   -3.56588048619731
O          -0.61064240099167    1.39824783128690   -3.15812545995025
H          -0.38288197421329    0.47523665668277   -3.39629801213926
H          -1.20529564629464    1.32122254376812   -2.39670593101771
H           0.59275714107615    1.75798515074370   -2.17701328666482
N           1.19696697352376   -1.13656983274514    1.85374932176848
H           1.98903619527421   -1.57327228798963    2.31159650610773
H           1.17408473629584   -1.27443158708544    0.80718770034659
H           0.26035923589825   -1.41947582420635    2.26814996946834
H           1.23696252634585   -0.07696367590069    1.84164166075838
