    23
        -45.37741719  Gyration_radius:  2.29909444978 Dipole_moment: 3.159
 S           0.49725997619793   -0.50416911157459    1.08930558265032
O           0.23690982601850   -0.08049277799364    2.57504993503988
O           1.75566096169251   -1.19949538310806    0.98823852552409
O          -0.64420107323446   -1.34484121125537    0.72734911711422
O           0.50223624268849    0.72957989786724    0.29109436321922
O          -2.83672793229324    0.15611173570731    0.46825729243824
H          -3.11966096751722    0.48227279445141    1.32324298703335
H          -2.08615789133838   -0.44803307290778    0.64437088352950
O          -1.35444689940018    1.13253163794782   -1.58784089093527
H          -2.13210911369889    0.96582216184760   -1.02481708425826
H          -0.62444405115091    1.21867295220640   -0.94133403721915
O           2.13180210392912   -0.93220682768763   -1.58580011882510
H           2.34062294882835    0.00339832367094   -1.63957467755628
H           2.12459293656839   -1.13381505638091   -0.61812581427235
O           1.77606178677185    2.04479976373432    2.17901076827026
H           0.88168259849972    0.63465522033500    2.74124335638949
H           1.44123916667510    1.72769899090199    1.31632568100347
H           1.39988344882470    2.91695317133644    2.31749193356711
N          -0.47035347074917   -1.30043098325856   -1.89006858608080
H          -0.85694103066209   -1.98968995591218   -2.52523566399930
H           0.58153717739029   -1.21182672650403   -1.96969871256600
H          -0.90490679192882   -0.32553717528347   -1.99923304987874
H          -0.63953993210890   -1.54195834813827   -0.87925177018932
