    23
        -45.36847188  Gyration_radius:  2.30637632868 Dipole_moment: 2.913
 S          -0.16077588432809   -0.40024858225009   -0.92943740091515
O           1.27764572479464   -0.16528721504615   -0.86902358719244
O          -0.91974279889936    0.83524289114286   -0.81063064719640
O          -0.46076645894145   -1.04936369080886   -2.30245491774154
O          -0.57167815452612   -1.35987566017254    0.10920524754896
O           2.57971114663976   -1.01107463013166    1.26751861260693
H           2.79730769637984   -1.93823234807806    1.15510057393705
H           2.23998473026900   -0.69821578993780    0.39708454947296
O          -0.11720975334223    1.82646829024133    1.48275602715160
H           0.74456396451791    2.16654848279242    1.14569028098758
H          -0.59270557851430    1.57288723091660    0.65539221702231
O           1.99064039135305    2.29681078698474   -0.05396016073425
H           1.81371806734794    2.92528826807721   -0.75582088120898
H           1.84113874377046    1.41092630236443   -0.44028324824179
O           0.28717655983864   -0.49393510046712    2.26883621915473
H           0.12323334814257    0.55799518079618    2.06741229300115
H          -0.17069374457574   -0.94315645998403    1.43351955647479
H           1.27140975451875   -0.67502330476379    2.08441490324389
N          -2.95630374788502   -0.99880232358031   -1.59583007989989
H          -1.45408144052557   -1.15693342553455   -2.26554697434620
H          -2.93297494411722   -1.63121389207913   -0.80567045886954
H          -2.74202541811752   -0.06971979585240   -1.24612895593500
H          -3.88757219379946   -1.00108521463829   -1.99214317831761
