    23
        -45.37432786  Gyration_radius:  2.32666312086 Dipole_moment: 1.850
 S          -0.39336203098202    0.03143215279764    1.11168000431603
O          -1.45544014965882   -0.62261547424761    0.34036671937911
O           0.02255458439295    1.27110580979719    0.45192511483779
O          -0.98732055485528    0.40943923093395    2.50446179367309
O           0.73259541267196   -0.84473887122829    1.34619877223639
O          -1.04058714969423    1.09865212987774   -2.08984994309431
H          -0.87871926601111    1.37842485741724   -1.17725699992288
H          -1.65409347635956    0.36419724492157   -2.02467947318345
O           3.24231311947369   -0.47782729731360    0.55899869848447
H           3.70575992714879    0.02227183507733    1.23229048003020
H           2.36489701554282   -0.69788359148056    0.94563913111636
O           0.22132408964405   -1.92490657213623   -1.23815955815425
H          -0.51968166066073   -1.53240372929995   -0.72789604404084
H           0.72060268786273   -2.42609640349265   -0.58692313301177
O          -3.32494787643394    0.89882142100027    1.36987486049400
H          -4.07786414105759    0.39489184399648    1.68662865682554
H          -1.86584371635760    0.79422212892889    2.30440232739861
H          -2.81807062668180    0.30412961762308    0.77984822278360
N           1.62801512293144    0.32553619531600   -1.39031622831324
H           1.02278258350727    0.86316691821524   -0.70370786611265
H           1.10379875138290   -0.58231194843604   -1.54360244451193
H           1.73477441694204    0.84297273584487   -2.25703320268495
H           2.51651292727804    0.10951973589220   -0.89288990851984
