    23
        -45.37432779  Gyration_radius:  2.32676660158 Dipole_moment: 1.853
 S          -0.89523625989523    0.62102055186769   -0.45158508001126
O          -1.88207236219779    1.44034081400588   -1.34053579717643
O          -0.92875844167033    1.19730312982164    0.87411617314357
O          -1.34473377575178   -0.77485593200988   -0.46243698394175
O           0.43829795596935    0.72908032287329   -1.04750590971744
O          -0.17513667752275   -1.37578702890736    1.83302893128697
H          -0.67580540314510   -1.30544815695900    0.99162744346741
H          -0.59871838801818   -0.74028544224038    2.41715908974695
O           1.37553380997263   -1.86578235916237   -1.13233336546075
H           0.59427966670248   -2.39042612710987   -0.94678406833311
H           1.04262760467444   -0.99831292587501   -1.40430014331897
O           1.12021269632760    2.17432020778178    2.25213986609196
H           0.28200471133536    1.88990462531707    1.82274515279678
H           1.22412456898971    3.10118081924845    2.03220756361542
O          -2.14998220916409   -0.63784826951642   -2.95298792812410
H          -1.83700487652104   -0.96425180716787   -2.08452996524261
H          -3.03671701796582   -0.98482472235716   -3.07336533558887
H          -2.01299709042884    0.88966854633501   -2.14026052666945
N           1.93486293773218   -0.00606369773864    0.97400830402347
H           1.47727797438626    0.31866507320392    0.07300500559193
H           2.82939009305973   -0.44671248563270    0.78430329688231
H           1.97607387671510    0.82508816341960    1.59936156126953
H           1.24247660636327   -0.69597327925301    1.38292272558991
