    23
        -45.37432785  Gyration_radius:  2.32655379733 Dipole_moment: 1.840
 S           0.69571987858995   -0.23033076199449   -0.92291317533931
O          -0.75344241335588   -0.13142518190592   -1.11041848111545
O           1.27204915458210    1.05122403146337   -0.58226851246824
O           1.01000498958362   -1.26282212960258    0.07005049552351
O           1.32230796511574   -0.67660073252591   -2.28076474685756
O          -0.02943506316204    3.32191402594619   -0.13242062230954
H           0.56223475031603    2.56012461335829   -0.32603506367366
H          -0.15169226951087    3.77552241565179   -0.96766566391248
O          -1.82817212137923   -1.50126089699083    1.03084009156062
H          -1.56580170199332   -1.26054721249838    0.13055181509966
H          -1.07280481125613   -1.96298156016648    1.39992541308097
O           0.76994439138065    0.37136923022621    2.13649101405337
H           0.91410021100179   -0.34597826210786    1.48212061952579
H           1.42708631503184    1.03612191920252    1.91093177676658
O           0.81170158547828   -3.20093815969440   -1.68318276075092
H           1.10089518982282   -1.62800434270458   -2.35682186544982
H           1.55861333871751   -3.80297025078355   -1.65400950911637
H           0.83207751355705   -2.68849469626447   -0.84909475597706
N          -1.41057677148556    1.33432358252125    0.95996032338287
H          -1.15442403893117    2.30789860001052    0.69491877712033
H          -1.31126472828463    0.74869196934430    0.08028035538841
H          -0.66212358466857    0.95820883270631    1.60880117247847
H          -2.33699778911332    1.22695495680581    1.36072332288833
