    23
        -45.37432775  Gyration_radius:  2.32677519364 Dipole_moment: 1.853
 S           0.76943613914839   -0.00177550147122   -0.89402311764055
O           1.53072230308156   -0.17733534390287   -2.24500654084520
O          -0.66304550124350   -0.13668024833400   -1.16757010819943
O           1.21670354270972   -1.06810249775762    0.00797197269116
O           1.08805117743251    1.31424257510261   -0.38712889479830
O          -1.57592364351344   -1.90142793436602    0.74890088242767
H          -1.31764659421334   -1.52090680335832   -0.10303127910268
H          -0.76890380202302   -2.26388655216610    1.11959958916681
O           0.58514998344623    0.25793964229034    2.20829835874303
H           1.12079079229511    1.04845175893144    2.09540803854964
H           0.88830418747262   -0.34568963719250    1.49604146659330
O          -0.61721114937975    3.26023094315584    0.21213249840936
H           0.10854426807695    2.63858647415924   -0.02137108305180
H          -0.77285728410571    3.78603728458005   -0.57362972173409
O           1.45451683958866   -2.80289637866986   -1.94224438460963
H           1.34245615783727   -2.39105512505317   -1.06102977561752
H           1.48748787571182   -1.13806692837895   -2.43223692393736
H           2.29591952654104   -3.26429762881159   -1.92454263885820
N          -1.67377143354154    0.95174267007652    0.99092564575030
H          -1.42734545658491    0.49560519041208    0.06463676517875
H          -2.58398999392067    0.63978391814936    1.31423905140908
H          -0.90240757633427    0.64081095449622    1.64732087850686
H          -1.58498037855320    1.97868917805050    0.84633933101131
