    23
        -45.37905397  Gyration_radius:  2.36294260794 Dipole_moment: 3.630
 S           0.48258558964829   -0.51032941916094    1.10073625422445
O           0.85758560000143    0.89259365563419    1.25503829849807
O           0.83351310861485   -1.25548965383398    2.42364422339936
O          -0.95541320427766   -0.64654082193652    0.91610300694127
O           1.23289402595424   -1.13802892307904    0.01584383899594
O           0.27854849649660   -0.14945590074917   -2.27083014527228
H          -0.60051281440562   -0.58556177355086   -2.25370205513215
H           0.77561288977681   -0.60673047666886   -1.56087631084263
O          -2.47524702165248    1.40996791412132    0.27047626520639
H          -2.81440458276219    1.82964179298300    1.06234740565134
H          -1.97528478851088    0.61740617116701    0.58112477450579
O          -2.08038666383696   -1.15583712923446   -1.48804499426691
H          -2.80144656960847   -0.52596392386497   -1.41268838943142
H          -1.68857259564732   -1.20704898861310   -0.59623114369964
O           3.30673270835727   -1.55725121702788    1.55566505108399
H           3.61912058428617   -2.46104246895668    1.47048736174755
H           2.73880627334769   -1.38557443796154    0.77613680630842
H           1.80815465955431   -1.34655278152744    2.38302107444923
N          -0.10790490335893    1.99677122850526   -0.86554928600747
H           0.39711288218440    1.67042065880879    0.02086391915339
H           0.22828785030960    2.89527166065644   -1.19268949564130
H           0.05603031070468    1.20316717824378   -1.58247054890335
H          -1.11581187517533    2.01616766604669   -0.60840593096801
