    23
        -45.37905389  Gyration_radius:  2.36291190977 Dipole_moment: 3.632
 S          -0.18613998144284   -0.01622664668796    1.29233796412027
O          -0.06683205767055    1.39454781193944    0.93245652940419
O           1.10169031516149   -0.69607888280531    1.18425457646356
O          -0.65535168780949   -0.09747523859618    2.77625305567921
O          -1.20030069684239   -0.69506383633719    0.49796573827065
O          -2.06887154926886    0.24497060374436   -1.88280361010604
H          -2.06528084832107   -0.59628201985776   -2.34600184067391
H          -1.94505473768252    0.02098853766333   -0.94150617943145
O           0.29410613453978    1.50079258734552   -1.70861146845244
H          -0.60516201428462    1.21967259773170   -1.98322466458312
H           0.19759915418045    1.67517770653734   -0.74914968707195
O          -0.55967845589679   -2.45373663049813   -1.36052480384854
H          -0.53869613056453   -3.33520216599955   -0.98539456201257
H          -0.86805071990581   -1.86130923546324   -0.63349056314984
O           0.80555862385922    2.03243799421690    3.31591756508128
H           0.33384134162614    2.79420160297988    3.66063455925158
H          -0.08866721007712    0.55987872555128    3.23072582124335
H           0.64526539678616    2.02122456828550    2.34959186605819
N           1.52684096605510   -0.75481275305365   -1.35812412483117
H           1.10454929395005    0.20008123442407   -1.64160188658792
H           0.86469043574404   -1.51061218460313   -1.62757781610836
H           2.45669008099399   -0.89877211337141   -1.73504098391102
H           1.51725433687198   -0.74840224314407   -0.28708547480356
