    23
        -45.37905397  Gyration_radius:  2.36295910243 Dipole_moment: 3.629
 S           1.14298067628393   -0.58143200246223   -0.24585968663419
O           0.18011297523915   -1.37030270682007    0.50981348818629
O           2.44083267966532   -1.43849931767229   -0.34360001059117
O           0.66075082873984   -0.32906029129882   -1.60096894853839
O           1.47658367182560    0.66785895905563    0.43380362622375
O          -2.31753212986071   -1.65382946321950   -0.28849981634419
H          -1.38190814239845   -1.64657787368027    0.02648766499683
H          -2.40108084489074   -2.43636505681922   -0.83516182886991
O          -0.82503046519283    1.90000308525726    0.98315633617465
H           0.10876939130577    1.63171585617979    0.85586302793484
H          -1.14832901488048    1.28559063134935    1.67682252852269
O          -1.43091994900486   -0.29704949306924    2.39597710742267
H          -0.71225855147794   -0.73371635313732    1.90163211219729
H          -2.23336040875963   -0.75579187990742    2.13533028634353
O           3.83290703298244    0.77426946795551   -0.69940471637396
H           2.98247478041280    1.02390903215888   -0.28220024438099
H           4.51717209911175    0.95387367871302   -0.05041323791464
H           3.11886539379457   -0.79421260797217   -0.63532258019036
N          -1.63463072543067    0.77923810904027   -1.21205798186287
H          -2.18906950249031   -0.05833422581831   -0.94106294447574
H          -0.68561240504174    0.39319990444361   -1.52445720692485
H          -2.08522319608523    1.32762259065027   -1.93566288333561
H          -1.41649419385077    1.35788996707063   -0.32421408156764
