    23
        -45.37905389  Gyration_radius:  2.36292520492 Dipole_moment: 3.631
 S          -0.79650400692053    0.64944363023860   -0.80570497483185
O          -1.26437808869073   -0.73427839933901   -0.82489909379184
O           0.62495280978966    0.74592343074889   -1.10647775482027
O          -1.54319901566997    1.42666214677946   -1.93135950944843
O          -1.10369864815662    1.28961918572312    0.47038246192727
O           2.32608389739619   -1.33631697368085   -0.82880857271824
H           1.70405067331267   -0.65904336381833   -1.15417937426916
H           3.03823802855169   -0.84620828860632   -0.41068592294163
O           0.33955232989204   -2.12510483847647    0.79039365330734
H          -0.36096201415623   -1.79996330638452    0.18717854384200
H           1.14995310182126   -2.09883502968245    0.23739067104904
O           2.39661242168515    1.37423793271655    0.74379615749381
H           2.53381761242060    2.32247118555557    0.75898998196578
H           1.77912079048899    1.20570155974308   -0.00784719877536
O          -3.70228188786137   -0.00780133979511   -1.43883025844782
H          -2.47396731936120    1.13865511404840   -1.82856346511296
H          -4.04120966517060   -0.52965622344993   -2.16987102026703
H          -2.93356850042134   -0.49845602519625   -1.08106094375680
N           0.47316465565827    0.09580378388660    2.12442230642523
H           0.29926072689699    0.10930466544242    3.12289999895508
H          -0.27437486217918    0.62911022018626    1.57291266926733
H           1.37208126479001    0.55273652755447    1.86874662546376
H           0.45725571588008   -0.90400559419587    1.71117500948582
