    23
        -45.37376549  Gyration_radius:  2.33166540905 Dipole_moment: 1.659
 S           0.38255067801115   -0.59158009051126    0.89919897000081
O          -1.08151312882842   -0.60145839836048    0.99067826729955
O           0.92081790912431    0.74672130987192    1.11194160912727
O           0.93003524158162   -1.47397325661966    2.06486780414578
O           0.83102765278983   -1.14839212189552   -0.36399269824215
O          -1.44284387364418    0.06129640389176   -1.54285555217869
H          -0.96769879664052   -0.66408616412476   -1.95952757516110
H          -1.47559164860128   -0.18455575225784   -0.59291107500412
O          -1.31030689049962    2.35810090118409    0.93507230422573
H          -0.55063109028329    1.87384559492717    1.28854504835882
H          -2.03941165272772    1.73543879087531    0.97125899172115
O           2.26951973410742    0.09945379579726   -2.19648774262082
H           3.19617929253217   -0.01097476769399   -1.97924988581026
H           1.77667479375502   -0.47570731668707   -1.56539070611794
O          -1.17030182975272   -3.06983342272407    1.88155420916557
H           0.34766425918912   -2.26195362180987    2.08131793975140
H          -1.71543804361392   -3.14711590758307    2.66788161693418
H          -1.40512016664909   -2.21759918629045    1.46129346117942
N           0.50692692534322    1.83377874136966   -1.25170084924279
H           0.73755281092654    1.56497457122990   -0.25561829358913
H           0.36072896551349    2.83478966530041   -1.33315972149301
H           1.27668786428342    1.44882564316448   -1.84088105043425
H          -0.37750902593330    1.29000458895141   -1.47183509204112
