    23
        -45.37376546  Gyration_radius:  2.3317751462 Dipole_moment: 1.668
 S          -0.29387164353072    0.80728765632037   -0.75318379126602
O          -1.38137956866939   -0.17737779871969   -0.75618992092540
O          -0.71409820645468    1.97124752892249   -1.70499583115701
O          -0.07707717205339    1.34238033491476    0.57858294826064
O           0.93318227531455    0.24793763435878   -1.30791742878229
O          -0.69204404395016   -1.24236397576586    1.56339874290018
H          -0.73936772766999   -0.45453524066560    2.11348871735488
H          -1.07084523497433   -0.96026662478717    0.70273494146130
O           2.15792415033584    1.18739846527967    1.98000325887684
H           1.29423128212580    1.34645797374490    1.53186387265928
H           2.71372676066805    1.93161341875810    1.74468474650231
O           0.40718672779631   -2.45775823747672   -1.39517286056295
H           0.56989120663929   -1.54262407963124   -1.66454375918239
H          -0.53837224654201   -2.50558979213598   -1.23952959397530
O          -3.24995989206812    1.64637724707826   -1.02988932376339
H          -2.77420348552990    0.81936635308192   -0.81119267751968
H          -1.65818860905049    2.13687240781774   -1.50090030452913
H          -3.85592084950549    1.43342882001556   -1.74328398895380
N           1.82839642613388   -1.13283086055425    0.74907689983927
H           0.87406336817207   -1.38088041878372    1.14162778914944
H           2.39761886424944   -1.95946953089738    0.59861930408025
H           1.61619965622126   -0.64762961833352   -0.16593383463483
H           2.25290794233917   -0.40904166250971    1.36865210423102
