    23
        -45.36350643  Gyration_radius:  2.37619166347 Dipole_moment: 8.300
 S           0.49925714095935    0.71211644025849    0.65720958217189
O           0.29850686524997    1.42138080028964   -0.58589504795214
O           0.60011654331403   -0.80902410627451    0.36273645773308
O           1.76729699544625    1.02226097357855    1.32449645894547
O          -0.62634811755834    0.87399708950002    1.59597655069269
O          -2.36116758541327    1.04307589752812   -0.58225388076925
H          -1.47270215704389    1.37379646667464   -0.80286538332687
H          -2.39661831932270    1.11589284729018    0.37747798717351
O           1.78164013610504   -0.10364647537390   -2.22988617821493
H           1.32493615456251    0.59680917562128   -1.72818196042928
H           2.08991055321673   -0.72763468946099   -1.56812211106508
O          -0.45756722518317   -1.13630571997370   -3.30792639419799
H           0.43145302673066   -0.81562900199613   -3.03691941189734
H          -0.88303130652980   -0.39627123334789   -3.74498589865183
O          -1.47604625391111   -1.46609968499710   -0.86840192408139
H          -1.99592585497514   -0.63226396648202   -0.80405328527825
H          -1.16621953290550   -1.50488758061599   -1.80554197212132
H          -0.26592754259987   -1.14610554514245   -0.12995962197393
N           0.87076116492551    0.08730878205286    3.44700926962165
H           0.95709644398994   -0.91581142897738    3.57340146449199
H           0.95762899647984    0.58680013716984    4.32574623302743
H           1.54076585727124    0.46692488614534    2.64957697994104
H          -0.01781597281465    0.35331595653060    2.88136208616411
