    23
        -45.35943428  Gyration_radius:  2.48845102008 Dipole_moment: 7.058
 S           0.49608903172069   -0.84938984071078    0.94814229479274
O           1.49785207710645   -1.06083413250864   -0.05073781893045
O           0.38685292535069    0.50611593155703    1.44056633546789
O          -0.88580424974519   -1.28290335765035    0.42164739941727
O           0.71263485236697   -1.80406770097030    2.12208097261600
O          -0.27642777028459    2.13463699253859   -0.54618840159281
H          -0.40205055841252    3.03222022686951   -0.23356825694263
H           0.04649847555022    1.60842990977372    0.21494345327818
O           1.09500768723941   -0.85018533714478   -2.67344953864431
H           1.37765934759564   -0.92369685122345   -1.73895413947085
H           1.43330157120224   -1.62544358764301   -3.12405273323652
O           1.45411192072036    2.01130248622575   -2.84984371950888
H           0.92497850340299    2.15380222961219   -2.05579411609942
H           1.47672592293060    1.05619873375710   -2.97640819550220
O          -1.30995895240591   -0.07532713832194   -1.73738467967386
H          -1.11311084027956    0.84475033740467   -1.48418570859769
H          -0.55266876626775   -0.36061044537883   -2.28892755104663
H          -1.12555193343468   -0.81809370366936   -0.48530452384539
N          -1.13509055485660   -0.72210691640990    3.51218624073574
H          -2.05136125165497   -1.01554778777923    3.20080867394384
H          -0.90044802255293    0.15820006480513    3.06375682681741
H          -1.14536004034906   -0.60221282151192    4.51634723279042
H          -0.00387938493627   -1.51523726160502    2.80431996323083
