    23
        -45.37136259  Gyration_radius:  2.46185785887 Dipole_moment: 7.532
 S           0.92735227492268    0.18500350601398   -0.36064043143514
O           0.84512228773120    1.36127765282400    0.47367653660767
O           0.35571157174530   -1.00089210345566    0.31199597406612
O           0.28941897913815    0.35215157595959   -1.67036113459882
O           2.42162295387621   -0.13672301078972   -0.63416898538553
O           1.79169454717077   -1.41758242553182    2.52256930299715
H           2.17757102920561   -2.28465770484721    2.38593762124056
H           1.17530286105089   -1.27279702292381    1.77473705884747
O          -1.45330382934041    2.15277640807396   -0.70800610127785
H          -0.87367903408131    1.68954611199998   -1.33713266588650
H          -0.87587999862537    2.24146203687950    0.06355149228535
O          -3.43561225821213    0.43065563305585   -0.54684129137645
H          -2.75174573877425    1.15067005826629   -0.49500416016278
H          -4.15257657655647    0.78716431123492   -1.07392784435656
O           3.18531232073524    0.72454397061329    1.66090732743137
H           2.90949858351707    0.16261624886985    0.19190111885910
H           2.43509098775856    1.33035522054899    1.55874237422910
H           2.83794741942080   -0.01538346429247    2.20031922800201
N          -1.60305483760906   -1.32767840794861   -1.28559434361910
H          -0.97122378106906   -1.45513977478492   -0.44031200788525
H          -0.95368289130220   -0.69336210345264   -1.82562333449761
H          -1.82569145874974   -2.19549957858944   -1.75972530626677
H          -2.45519540194366   -0.76850713772732   -1.00700041781366
