    23
        -45.37104321  Gyration_radius:  2.44494809323 Dipole_moment: 3.119
 S          -1.10669437509731   -0.46647460824018    0.28418813497601
O           0.04775457772220   -1.33541258455110    0.50388687399271
O          -0.90541834585915    0.34640280071801   -0.91569891722541
O          -2.37010584764944   -1.15490134364604    0.32179927943740
O          -1.08526278594966    0.58850409383034    1.47028263921117
O           0.07013554973148    2.64665102158506   -2.17536162832173
H          -0.52044091250107    3.30279757823109   -2.54703118216157
H          -0.49514864118482    1.97317765184039   -1.76749396554147
O           1.75146895297304   -2.09029416645836   -1.42364381353260
H           1.15012181996623   -1.96434951307776   -0.65911737308111
H           1.32760898362880   -2.73556056163208   -1.99063539587149
O           1.76509094112750    0.45076359514335    1.43948224227072
H           1.22015044333548   -0.34720116465294    1.26526973118427
H           1.15936510234272    1.07086061329755    1.85470202780555
O          -2.56798290878938   -1.03810693377379    2.90997365725206
H          -1.55087807520943    0.12022542788043    2.19451348162510
H          -3.45375086249223   -0.77501256388394    3.16990843201567
H          -2.63351765632548   -1.34580964188429    1.97922427974722
N           1.67821172039602    0.56734143568885   -1.20533269552016
H           1.90101868625804    1.36138929814763   -1.80118787969340
H           2.02292072879764   -0.34717080882108   -1.54884479156509
H           1.97882278784594    0.69552209879594   -0.20764637262097
H           0.61653012693014    0.47665827547598   -1.15123677438983
