    23
        -45.35943434  Gyration_radius:  2.48858191897 Dipole_moment: 7.055
 S           0.30956042407703    0.50349552981537   -1.23220827277227
O           1.45659772427705   -0.32301464013240   -0.61905554122613
O           0.80741140582201    0.74649420776611   -2.65692791000281
O          -0.87514648207522   -0.32538787651620   -1.26833850608764
O           0.16750710194163    1.74751098793157   -0.54065326840027
O           0.64904853904237    2.10509175549129    2.05282745782433
H           0.40702802839668    2.09513352033562    1.10423910241274
H           1.21970905017691    2.86407058066885    2.18242844565121
O          -1.58180171881553   -0.99480939671036    1.19990517671405
H          -1.42832135684590   -0.72226859773165    0.27110569107970
H          -2.33732799217677   -1.58500197797476    1.19795201321031
O          -1.93025681141769    1.22276093857947    3.01097506123796
H          -1.92874655073112    0.47217011197161    2.40489179719669
H          -1.10770977053409    1.69457716302511    2.83909019201818
O           1.01933138680870   -0.55551821458332    1.84146916290907
H           1.33950908974226   -0.45458423966394    0.41293201399489
H           0.98285001818945    0.37760895579801    2.13650189015680
H           0.09488473813683   -0.86344173924093    1.84365975900226
N           0.55983096556663   -1.71107559851305   -3.30197573111961
H           0.28648572087214   -2.07503885912474   -4.20505982140005
H           0.79745082644354   -0.19300177189098   -3.08044806249637
H          -0.22630400036591   -1.75741235929608   -2.66093944815152
H           1.31840966347249   -2.26835849000465   -2.93237118175870
