    23
        -45.37104320  Gyration_radius:  2.44487919445 Dipole_moment: 3.119
 S           0.27663213440940   -0.22082894318857   -1.18221954386368
O           0.46963543014645   -0.77277219570208   -2.49741169176401
O           1.10206973929172    1.13212161120166   -1.09010851943788
O          -1.10936585023311    0.13797912828800   -0.88835254965255
O           0.82457145261227   -1.04351073942106   -0.10336218537180
O          -0.69645149619664    2.00132633719087    0.94790308022216
H           0.15789768950799    2.33720719149300    0.66318796345617
H          -1.01497509391488    1.46358740621470    0.19063695420304
O           2.11343151696238   -1.28940138769769    2.36804500285765
H           2.99621244047460   -1.65463007730944    2.43825775181143
H           1.90130371627839   -1.27318149730105    1.42244298628604
O          -2.70778830912771   -1.25037363925276    0.75636069592377
H          -2.97129631894429   -2.06780116580299    0.33214657583228
H          -2.25761279167017   -0.71900582952950    0.06573467418548
O           0.65548807838782    1.54939051975646   -3.64830211704074
H           0.45535654422795    0.60279134585297   -3.47761165392611
H           0.99359716832417    1.52171281212132   -1.98283319316916
H           1.38937310707826    1.56247245412475   -4.26686692360755
N          -0.52496900056664   -0.40708433032365    2.03710706228506
H          -0.60958703152493    0.63226494182501    1.91562661006235
H          -0.01117995740840   -0.67694940951965    2.87281349548906
H          -1.46254242839754   -0.83737614593001    1.94243463877498
H           0.03019924025995   -0.72793837714661    1.18437087644337
