    23
        -45.37205103  Gyration_radius:  2.37835959613 Dipole_moment: 2.424
 S           1.15127906146522   -0.23580528800202    0.63487076855924
O          -0.15273199040592   -0.91072698752114    0.65204533361502
O           2.06366966775759   -0.75980240485612    1.61550012695256
O           1.66667294276526   -0.16010528361074   -0.72273906018810
O           0.83293175148871    1.27492418413814    1.02313617418598
O          -2.77407685386576   -0.05575055098531    0.79704430145956
H          -1.88521169508973   -0.40132997999507    0.97789040254135
H          -3.19555236823962    0.04777194782731    1.65081679532937
O           0.26951723682997    1.90617819842175   -1.64213039289232
H           0.97126010267782    1.25667584966041   -1.42576811429768
H           0.18383020586142    2.43779502660697   -0.84597377279008
O           0.68823005186607   -1.67451886670523   -2.74000349554612
H           1.17492774247520   -1.14238992643234   -2.07858936873120
H           1.07155934901236   -2.55174989320621   -2.70894928131320
O           0.76690122853473    0.44606756754068    3.52821677567096
H           1.37563162597640    0.79088900284792    4.18558729413065
H           0.67315337701304    1.21683608165064    1.98558953770799
H           1.27310369102491   -0.21518980576049    3.00742309267847
N          -1.26769357633863   -0.25463468030918   -1.60600572302811
H          -2.28136597551772   -0.25121122342354   -1.52880194548075
H          -0.88637188785147   -0.88596790382426   -2.32850516668737
H          -0.86664327446943    0.70863348872680   -1.75234355424112
H          -0.85302043313207   -0.58658852290727   -0.67831073772229
