    23
        -45.37419234  Gyration_radius:  2.36563842298 Dipole_moment: 4.494
 S           0.45423545222349    0.22286372876210    0.77579604403580
O           1.22545988122968   -1.00375712487072    0.78154230272510
O           0.87683878019209    1.07527116751185   -0.36314592668055
O          -0.98028137116090   -0.01749267482536    0.70905774903484
O           0.78654456357284    0.98516399207980    2.07772364081696
O          -1.40092526281346    2.44772082296020   -0.40024139378649
H          -0.51533862464022    2.08017941240355   -0.58681590095665
H          -1.89934945143580    1.67924330885093   -0.09513576037366
O           0.10974675858424   -3.37468762493614    0.42112014320870
H           0.59079662813648   -2.54610243927554    0.64326157388193
H          -0.28185440143285   -3.67563567743014    1.24238121672796
O          -1.20416017464476   -1.76246346720462   -1.24306097981536
H          -1.31555937500061   -1.08607569834358   -0.53302391238871
H          -0.92645904305894   -2.56506462855171   -0.75006574555340
O          -0.47559071865341    3.25063220772398    1.93529433539579
H           0.27450326097910    1.84451320307873    2.10052864693330
H           0.16355988697786    3.94681485768231    1.76920555761455
H          -0.95337123648255    3.09831990083608    1.08020511593232
N           1.11940436751603   -0.92604068937092   -1.95598401774414
H           0.10241602130723   -1.32584514082656   -1.80225552611225
H           1.76833272728735   -1.53815505784057   -1.46336957363052
H           1.36876910198960   -0.81179861163150   -2.93326727554391
H           1.11228220933497    0.00239626320789   -1.40975029372322
