    23
        -45.37204966  Gyration_radius:  2.38264872909 Dipole_moment: 2.419
 S          -0.67151701340074   -0.17345509087186   -1.13835865409190
O          -1.78793491287892    0.17129017888746   -0.27260116693900
O           0.51355042437948    0.61968822821624   -0.78776280863635
O          -0.29859969850004   -1.66594058893096   -0.73016226557295
O          -0.95526432246681   -0.15968791536592   -2.54841690614943
O           2.81741485582130    0.18825219922262    0.67594313659540
H           2.15460492624661    0.30115368446902   -0.02408663270931
H           3.60886923303548   -0.13136397342894    0.24129684374800
O          -1.14249612327837   -1.21783704020693    1.90005286249685
H          -1.60905105628030   -0.79273777682923    1.14993572040815
H          -0.70723173258328   -1.98000833533867    1.50839817263820
O          -1.84674865792274    2.42796699220679    1.21708737159771
H          -1.97614277248022    1.63124502985250    0.66381787898173
H          -2.10247147659587    3.17343169649261    0.67270644876416
O           1.01271280147518   -1.80171797781504   -3.01650164845616
H           0.36483549701978   -1.06672305162624   -3.08689827585928
H           0.30647806449130   -1.93772589802199   -1.44815230139387
H           0.76900611182474   -2.43822302919541   -3.69259274379297
N           0.32828869089384    0.98619236663406    1.78211262647795
H           0.44445378344928    0.89950103793097    0.72303806422632
H          -0.32496509999956    1.77189679509173    1.93220003447868
H          -0.14417920476960    0.09182157649419    2.07599141162833
H           1.24638769251041    1.10298088214958    2.20295282160032
