    23
        -45.37220916  Gyration_radius:  2.31721155005 Dipole_moment: 5.300
 S           0.33726163006319    0.61448454443531   -1.27288835328666
O           0.28616526694407    0.01224738666085   -2.58336509726672
O           1.19115309951803   -0.39375403269687   -0.41386861720949
O           0.93164225958803    1.92130373525421   -1.19460458051961
O          -1.00465424785096    0.58998254270991   -0.62748466677556
O          -1.48714220456037    0.25014022116654    1.96101857967109
H          -1.37391988212533    0.50792285767121    1.02068798949398
H          -1.84510102904020    1.02444558773655    2.39882170343790
O           0.84050161984169    2.98890474702227    1.19137824486020
H           1.50759102953499    3.67730529372874    1.19309458282988
H           0.79818630977947    2.66547410120759    0.25977401030601
O           0.56634491733401   -2.50063785264569   -2.10418039753137
H           0.49134448051078   -1.57588233211220   -2.46888367660035
H           1.41329362357328   -2.50441683522450   -1.64953361081793
O           1.22092877596306    0.47672910044483    1.98730817271262
H           1.21050095020853    1.44959818655892    1.84509412191030
H           0.29916005081027    0.25828637043026    2.22280735103950
H           1.28907206040417   -0.04301057807991    0.53228490352748
N          -1.35500691502630   -1.91499362519724   -0.44628392608849
H          -2.26574423019063   -2.25927990556823   -0.73374039966160
H          -0.57235016489279   -2.30007857347644   -1.08221229736204
H          -1.29417544734267   -0.82107726382252   -0.56978773531665
H          -1.18505197304965   -2.12369369620164    0.53456368865302
