    23
        -45.37096461  Gyration_radius:  2.41312914356 Dipole_moment: 6.268
 S          -0.07949242740563   -0.85466007723439    0.02891473924003
O           1.32572859433629   -0.40191914053861   -0.12772663362219
O          -0.93257603945451    0.38638791617326   -0.41360676714427
O          -0.39553505304673   -1.89987651909681   -0.91293441593512
O          -0.38518420455477   -1.16026540515372    1.41041911103342
O          -2.21906659844395    0.17865182924807    2.86397301972830
H          -2.01178297406630   -0.02382186747020    3.77811638714471
H          -1.68560083084709   -0.43784833807520    2.32635214022662
O           0.19435944698353   -1.69817047744290   -3.42624956559261
H           0.77138254093526   -2.44044294360318   -3.61550691632109
H          -0.16013909596168   -1.86503683019652   -2.51265707142492
O           1.32362966823634    0.60093499842288    2.45881668495432
H           2.00199117810935    0.54574115585808    1.77958333740191
H           0.74992231255382   -0.16706983815021    2.27241496916437
O          -0.76057843628967    2.00879629953846    1.52562600223622
H          -1.46223048788427    1.61049894148484    2.08016266941391
H           0.07861514272401    1.70983905120537    1.94344371148401
H          -0.90026931507677    1.08282638095665    0.33933182958107
N           0.92967733157715    0.59895220456215   -2.39610182155345
H           1.59042385216120    1.24503021390824   -2.81490031312837
H           0.03775577165151    1.04738612219310   -2.17686497319646
H           0.73229679034194   -0.25018415200735   -3.00028783308207
H           1.25667283346109    0.18425045537258   -1.41031828049068
