    23
        -45.36683671  Gyration_radius:  2.4428540222 Dipole_moment: 4.883
 S           0.93839362521214   -0.18398453621119    0.00960118543760
O           1.41600939817642    1.14112257455638    0.65559477476525
O           2.11562223753100   -0.95261302918191   -0.38974924919734
O           0.12445488447247   -0.90247329951705    0.98517035276427
O           0.14709009184803    0.16005718812010   -1.18073063932154
O          -0.54853305217745   -3.21212792091469   -0.05603801114049
H          -0.40857037806202   -2.34012343275126    0.39327448231080
H          -0.18699347986538   -3.86867998924371    0.54244333251408
O          -0.45853446022016    2.72948255985888   -0.86401814180703
H           0.38929059364930    3.00372318988665   -0.50383777114742
H          -0.33285237645426    1.78550650672015   -1.09388356957222
O          -2.10287521628124    2.59158829755515    1.24587625125247
H          -2.33199106620858    3.49045728508858    1.48687930867259
H          -1.60390449341119    2.65052517444818    0.39832113385768
O          -0.22813941484137    1.23139331767332    2.57866687027385
H          -0.38948828379700    0.30036581641633    2.35948530458275
H           0.84311280849683    1.28445677796250    1.49022760437029
H          -0.99141167306210    1.73074136193573    2.20443287963358
N           0.72285228749292   -2.17086419237478   -2.11021864058570
H           1.56125418503872   -1.84728092916983   -1.51305432086609
H           0.16500040450616   -2.80693868805010   -1.48067060861914
H           0.21543768532803   -1.25436953102103   -2.13785738366463
H           0.94477568262055   -2.55996449161052   -3.01991513450973
