    23
        -45.37026580  Gyration_radius:  2.27637408226 Dipole_moment: 5.655
 S           1.16538237748440    0.63226588564113   -0.19310626642706
O           1.37094315141235    2.13877962226915   -0.40581986897613
O           2.47883608070086   -0.00458405571888   -0.19311718665455
O           0.49471877791926    0.42034777443180    1.09765396518045
O           0.32973611281139    0.11140116177671   -1.27895090003903
O          -2.14358041249258    1.13747845089450   -1.09793744264051
H          -2.42057298068382    0.57323048519242   -0.35171515073044
H          -1.28974293558482    0.75404769177600   -1.37550270497385
O          -0.11702098503502   -2.37530221585874   -0.67473652488861
H          -0.13209299807368   -2.89756694790974   -1.47852792056409
H           0.02367677319006   -1.43416888063102   -0.96743961399363
O          -1.96696199273113   -0.68934343095150    0.92527293564251
H          -1.68736448957530   -1.46717425055615    0.43125078329474
H          -1.14935999890072   -0.19282828511710    1.11486202982283
O          -0.92446773048721    3.24840525118198   -0.17804688540015
H          -1.00755112421594    3.93564591654984   -0.84271497562571
H          -1.51193798887927    2.49678176319344   -0.47966170139092
H           0.48618319934424    2.61008835146377   -0.25439065529230
N           1.61938906892625   -1.85899674821629    1.27977651867211
H           1.03351023977817   -1.06277157438110    1.64418840670757
H           2.07560961709994   -2.42089452157560    1.98997724704478
H           1.00498712570060   -2.39791153937772    0.63198877532267
H           2.26768111229196   -1.25692991407683    0.65669713590936
