    23
        -45.37284365  Gyration_radius:  2.43260406966 Dipole_moment: 6.301
 S          -0.35757053319675   -0.80598465835221    0.54445236203836
O          -1.26781427712587   -2.02270748194229    0.84697135119726
O          -1.20611466513409    0.22646032254318   -0.08563050050688
O           0.15822146490713   -0.31397655296242    1.81711545970069
O           0.69663363529998   -1.23068956413106   -0.36098865316166
O           2.73976906182130    0.06330229787279    0.69282202528723
H           2.08773168394091   -0.46894609727741    0.18619661798140
H           2.51218609229925   -0.10883343600944    1.61075356007791
O          -2.36673048840577   -0.81986610490678   -2.23881065145243
H          -3.30338992915608   -0.82053243044764   -2.03362985787306
H          -1.92576074039007   -0.35403271412804   -1.49661462936052
O           2.16321549780922    2.53772373470621    0.03808610176000
H           2.51237834171197    1.64067120156426    0.29476311362600
H           2.17587688613797    2.55392898343392   -0.92060760206912
O          -0.98637410779987   -3.01307104281785   -1.50359501637398
H          -1.27034630084400   -2.56272764643147   -0.00133893297164
H          -1.53273923823075   -2.36426846607107   -1.99451992910854
H          -0.10516540801637   -2.61255526348202   -1.45440643320857
N          -0.15342423160553    2.15296215177461    1.22817679080465
H          -0.61732080390081    2.88662691055105    1.75188038918612
H          -0.77139256908803    1.67171237343282    0.52027840810064
H           0.74263895869705    2.47282906908726    0.75514318355497
H           0.07549168024823    1.29197440400045    1.80350285276440
