    23
        -45.36683661  Gyration_radius:  2.4428651568 Dipole_moment: 4.881
 S           0.25789356121311   -0.42068998383963   -0.81858125366279
O          -1.08828417141412    0.14180863044624   -0.77505081501142
O           1.15663138558697    0.29999843600941    0.09485165846771
O           0.18575299077877   -1.89351305827780   -0.34206674918567
O           0.81363736131028   -0.40052303898230   -2.17022623065253
O          -1.14553205985035   -1.10573452548359    3.18601332379592
H          -0.19601592706385   -1.08242134702160    2.92370111743437
H          -1.20345467353511   -1.69914895410915    3.93634765010092
O          -0.98584213967523    2.57833575395761   -1.73644343324342
H          -1.57445130204249    2.57052334172551   -2.49371746597816
H          -1.11424288856141    1.70107182294798   -1.29379264053533
O           1.34995723311204   -1.27500576369594    2.22818399281021
H           1.34952797636093   -0.59261269642796    1.52529818927230
H           1.37998971894464   -2.10952891685032    1.75237566277737
O          -2.08062191799078   -1.80925759592625    0.78362347276105
H          -0.72297496247838   -2.01099741369699    0.11129553792268
H          -1.86623709864350   -1.55552101634018    1.71188748331653
H          -2.18491460706349   -0.97516782825243    0.29971332616994
N           1.57513337589463    1.98149099677309   -1.80918589518458
H           0.64966773378454    2.48308713074449   -1.87334494055427
H           1.66974832487417    1.64888762229766   -0.81988292412002
H           1.40535511497083    1.01775311157862   -2.26366685658785
H           2.36927699149080    2.50716529242130   -2.15733220010672
