    23
        -45.36891632  Gyration_radius:  2.3956262569 Dipole_moment: 8.220
 S           1.00222127583640    0.10830542420574    0.40760539344653
O          -0.32905286185662    0.26754614421374    1.00039307611306
O           1.83371779517086   -0.76069402580453    1.25100722561971
O           0.77954806678008   -0.74983109495697   -0.89816554456774
O           1.61055106845574    1.35924805298748    0.04888990262012
O          -1.57649323736312   -1.91832438932160    1.60339068877589
H          -1.81112467023371   -1.83093402696760    2.52920615700601
H          -1.20121859100484   -1.03433785491895    1.34103094019627
O          -1.60567124490282    2.28811117364069   -1.84328342372294
H          -2.31900321894057    1.67340238482294   -1.66551508914116
H          -1.33526190500493    2.64838814176252   -0.96573980473584
O          -0.68279282170965    2.88420332098719    0.59217527725543
H          -0.67540190269508    1.94855939042112    0.87045742584682
H           0.24954788276423    3.09403271392644    0.47833359819249
O           0.74635137557464    1.20851584142085   -2.50693214094505
H           1.29616027426473    1.65497706830754   -1.84564630989051
H           0.72978541371450   -0.07096316522458   -1.64963537689365
H          -0.14392520585490    1.62565644708655   -2.42862230320033
N           0.68869540276397   -2.93292419752017    0.73669538404026
H           1.28941779515595   -2.03014215933645    1.03424068997895
H          -0.27649936859947   -2.73626271418187    1.12669775394636
H           0.64792923963716   -2.88789880346868   -0.28037016310306
H           1.08251942804481   -3.80863366210006    1.06378664316166
