    23
        -45.36899705  Gyration_radius:  2.3086219613 Dipole_moment: 3.127
 S          -1.01844977879877   -0.16155593026918   -0.39998844237043
O          -0.37670998266743   -1.46534355289830   -0.47004958129167
O          -2.48803736128093   -0.28732456482320   -0.86208014776876
O          -1.03308415439035    0.32653421485955    0.99011017356934
O          -0.36982784706883    0.81458932072462   -1.26967369438586
O           1.09043705178282    2.68693983041314   -0.17384910499276
H           0.56234837163408    3.44629825720927    0.07760829225169
H           0.47952166243003    2.07318370117141   -0.65494465978602
O           2.21040708798509    0.53252129720945   -2.03590882657084
H           1.23528744193074    0.54798664458185   -2.01130091178273
H           2.48797053885051    1.43743224020682   -1.87058269338089
O           2.12214721424484   -1.00211734854745    0.11148968552300
H           1.22893912497011   -1.37503880755236   -0.10368886835627
H           2.38561486737245   -0.53257158285382   -0.71921755084254
O           1.32668942936541    0.80952670952497    1.58604250608217
H           0.30270349379271    0.59169406890968    1.48168440101381
H           1.79391733551288   -0.01962335012052    1.00097050072233
H           1.42271072074631    1.63503533431217    1.01616562820306
N          -2.74958560325020   -2.12024223711404    0.95238315493630
H          -3.31729013546365   -2.93594699622841    1.14323036577428
H          -1.82848471140673   -2.41630359763731    0.64263076539203
H          -2.83838582728299   -0.98990620643550   -0.24065512205296
H          -2.62883891900287   -1.59576742464306    1.80962416010853
