    23
        -45.37284372  Gyration_radius:  2.43237661443 Dipole_moment: 6.309
 S          -0.97682831596748   -0.26672084913697    0.22806395234984
O          -0.66792562683490   -0.60753808180516   -1.15027776566728
O          -0.34030229236293    1.01148747803674    0.60781965339427
O          -2.50832236308082   -0.06978840465770    0.35613726313790
O          -0.58663173382905   -1.31232345172045    1.16727029195193
O           1.16895958755172   -2.45855022466490   -0.75057570165026
H           0.72035883848397   -2.89681295082597   -0.02210942629299
H           0.51669311254588   -1.79248658488684   -1.06033650616914
O          -1.30833015467382    2.93877463480590   -0.94953798951634
H          -0.86527940311251    2.26869913388053   -0.38645362208785
H          -1.77509085587346    3.52365762677975   -0.34996031735757
O           3.17480450919467   -1.01181599618885    0.12635447900658
H           2.50817898932411   -1.65274989322980   -0.24400128275501
H           3.39927194846841   -0.42655786730534   -0.59936798614731
O          -2.73585761952936    0.91219266158017   -2.00392139422648
H          -1.99845556449658    0.31818734662275   -2.21042874002174
H          -2.79580647631008    0.31763087621145   -0.52611309301101
H          -2.31940389984354    1.78291304086545   -1.83390603696782
N           1.52029567035476   -0.10495724596473    1.96250784272972
H           0.76135469355801   -0.84370192925401    1.90867373376076
H           2.31051565573889   -0.40614426615665    1.31927522200553
H           0.97240568193974    0.67275269401378    1.50444249794839
H           1.82539561875865    0.10385225297956    2.90644490559401
