    23
        -45.37997263  Gyration_radius:  2.33291526531 Dipole_moment: 3.123
 S          -0.05244165095962   -0.09321958638738   -0.94208894597292
O          -1.07549248036550   -0.35622391311386    0.08289651590237
O          -0.54293832360767    1.19929604536237   -1.70766136546470
O           1.20530392231287    0.29715024980547   -0.33052894808048
O           0.05399469559350   -1.17601177232884   -1.89058403904113
O           0.57026629350886    2.65738167923251    0.66038240255068
H           0.97500925947939    1.88510587651714    0.20899713304434
H          -0.04641356424813    3.01721892064948    0.01906709490087
O           0.31476960448677   -2.60127641361608    0.61600005828510
H          -0.38170112990123   -1.93972497653946    0.47363925408286
H           0.65213455461169   -2.78158043178511   -0.26559930182697
O           1.84386925654170   -0.86638024776177    2.03291295514975
H           1.41198842754161   -1.69719524075387    1.74990103630147
H           2.02662282090008   -0.41641744320293    1.19037003610719
O          -1.86619868877193   -0.29072349780402   -3.43706370256643
H          -1.24447085951135   -0.88456784317294   -2.96643849619448
H          -1.18367069197214    0.87215393071491   -2.37426819505521
H          -1.58002393286864   -0.27237402753305   -4.35323182360202
N          -0.23386656762180    0.70315743039794    2.29171019089883
H           0.64001983857856    0.09350540433981    2.40864791982104
H           0.05865246065353    1.64120283417790    1.93616526542002
H          -0.74253178338862    0.25685443778728    1.46775934658507
H          -0.80288145099413    0.75266857501784    3.12901558875560
