    23
        -45.36668396  Gyration_radius:  2.34802984316 Dipole_moment: 6.439
 S           0.73897917231870   -0.21589619925230    0.21324250329785
O           1.96810979867605    0.39820792590103   -0.21005441663692
O           0.71487416046664   -1.67312114245718    0.01353789886684
O           0.32947576502725    0.14257753976635    1.56478352271051
O          -0.43368505865700    0.29385766012638   -0.71948377135845
O          -1.94883354044173   -0.97182688575726    2.10525915286469
H          -1.09549933406336   -0.47942213224405    1.95789911327726
H          -1.82437411499507   -1.46079848391066    2.92092233824460
O           1.99645584872861    3.05505530360083   -0.21725824238374
H           2.12792890205922    2.08510885244144   -0.15718089649493
H           2.29096995453217    3.31037261894691   -1.09319838472543
O           1.52250274415193   -1.22148236636277   -2.57878912876181
H           2.06918628807977   -0.45540921940931   -2.38935586183820
H           1.31199122506536   -1.57976901011744   -1.70785698463457
O          -0.52749516916517    2.54244363633862    0.49593238896276
H           0.32326903427845    2.96187561987365    0.24131715264785
H          -0.58741621903492    1.23626501886260   -0.40829229205561
H          -0.32694273885392    2.03806489715229    1.29606178408936
N          -1.77032294927885   -2.03178612426627   -0.28443659096095
H          -2.00064278225960   -1.31671203464678   -0.97377345454846
H          -0.67146279793518   -2.02007480679494   -0.21736018329282
H          -2.05888978024650   -1.69754407191913    0.68239536770932
H          -2.14817840848153   -2.93998660585002   -0.53431100493770
