    23
        -45.36668372  Gyration_radius:  2.34813188567 Dipole_moment: 6.449
 S          -0.32378187147104   -0.51474656086003   -0.51710374208696
O           0.13559815452299    0.87684899324379    0.08037152459073
O           0.83553534892230   -0.93230964920660   -1.32049422687095
O          -0.50836520681635   -1.38014667502502    0.64037418418104
O          -1.51556622503824   -0.31405458082173   -1.29597334007473
O           0.29474117562030    1.18318922602673   -2.99742378325665
H           0.59899215346493    0.36802444332506   -2.58018413575832
H          -0.66007309668491    1.15017357727867   -2.90415579140954
O           1.71064280507164   -1.54095365393234    1.97215604743513
H           0.81477125498442   -1.49707028069724    1.53861331334421
H           1.90637474817473   -2.47567987218289    2.06051139759679
O          -3.57139515447472    0.77357415792859   -0.01252728878204
H          -3.84118297640785    1.52548289931226   -0.54261267441460
H          -2.91694101178722    0.28058929353737   -0.55152336950278
O          -1.68260448255891    0.79532929811662    1.87700919873836
H          -0.53040370370387    1.04870352567426    0.81234300919461
H          -2.50722357324355    0.90033932475783    1.35378323712250
H          -1.52084646166446   -0.15762510177911    1.89860612556216
N           2.70753144817631   -0.00095483174746    0.10129695992445
H           2.38687733226499    0.95317159522158    0.26386369303634
H           3.67373119693897   -0.03246586590565   -0.20775270680070
H           2.51286251751602   -0.59131062286702    0.96348491344922
H           2.00072560818958   -0.41810865940108   -0.63266253525145
