    23
        -45.36668404  Gyration_radius:  2.34788482078 Dipole_moment: 6.442
 S          -0.09418420014842    0.69455412795433   -0.38484526705970
O           0.59578816252663   -0.65534222686628    0.06988874535734
O           0.92779738934364    1.66865292472870   -0.65655765859708
O          -0.85276262589211    0.29547159983168   -1.58031358821243
O          -0.98179476728950    1.05351027901555    0.71333655015834
O          -2.67614081963529   -0.86703564634514    1.11959008097451
H          -3.54858788099800   -0.47005636908399    1.08604209351538
H          -2.03570289243270   -0.10712334404955    1.05072842826353
O           2.58363404181679    2.20631301841344    1.35011330624539
H           1.97464575942735    2.15916062401143    0.58282496837097
H           3.46723023031708    2.09005867749914    0.99659688294557
O           1.55926364351888   -0.15441740489108   -2.82805426339863
H           2.04055062612352    0.55494104549197   -2.39606285919495
H           0.63826086971122    0.00949575484996   -2.59114487592405
O           1.06251176732955    0.27912123139963    2.40472615386986
H           0.21315043416277    0.73249746155961    2.31655495824854
H           0.90697408134967   -0.45597506038552    1.00369091830833
H           1.73784169100217    0.97054252903994    2.22982885602329
N          -1.51937813480408   -2.05043747606008   -0.91210463762861
H          -1.26754546628180   -1.07240826648320   -1.35025020474157
H          -1.99838614167378   -2.66905826723292   -1.55857270190318
H          -0.62957880142955   -2.43680635596126   -0.59826970885260
H          -2.10358695605467   -1.77565884644643   -0.06774614677199
