    23
        -45.37846662  Gyration_radius:  2.34649574463 Dipole_moment: 3.449
 S          -0.94345434333115   -0.03021421414904   -0.53967298714170
O          -2.39750283163134   -0.53678279467963   -0.26124252863003
O          -0.18137454578911   -1.20441233764782   -0.94486744009683
O          -1.01625817847112    0.98374052842086   -1.58043865517946
O          -0.42796464398236    0.51685735032253    0.71340795914504
O          -0.00496763729884   -1.05862005712651    2.77068970388216
H           0.14986610201031   -0.49831347735615    3.53322893620033
H          -0.32649759139464   -0.45850066795704    2.05658130138988
O           2.22396768801312    0.86576651389586    0.39109709382449
H           2.22419173559302    0.93761173610330   -0.58697798165314
H           1.29066593988837    1.02364340860214    0.63159241487693
O           1.56454639312499    0.67450151773635   -2.20629721477657
H           1.49697138941741   -0.25349738714339   -2.44434770116590
H           0.63832511962165    0.96069157701337   -2.09492465698619
O          -3.29912052028979    1.91342640431804   -0.67877939850986
H          -3.91961422654524    2.04704033598984   -1.39903882802196
H          -2.93840129067686    0.27914134196044   -0.23797086042534
H          -2.41097942199216    1.85786813058535   -1.08651128621766
N           1.68907244001769   -1.64329286001413    0.80176219696764
H           0.92720242651602   -1.63656007515697    0.05639243029395
H           1.18545720019460   -1.63855843323486    1.71729073861901
H           2.32928782055755   -2.42240388135751    0.70307751676051
H           2.14658098644194   -0.67913263912508    0.68594923684359
