    23
        -45.36376324  Gyration_radius:  2.40136355188 Dipole_moment: 4.512
 S           0.17831911030702    0.55640675378583   -0.91967665895107
O           1.17948980896443   -0.46273121126788   -0.75679091176779
O          -1.12879598981208    0.10251703105426   -1.30411133099424
O           0.04887841820054    1.36335805587944    0.37783710995617
O           0.68577414663126    1.57773195870188   -1.95343551035397
O           0.80489272738410   -2.95314875251101    0.21584595180591
H           0.95503720810292   -2.07883716507900   -0.19124703021604
H           1.25726706074596   -3.59027483411305   -0.33857992264493
O          -1.58544727228249   -1.46502623294614    0.90247937270350
H          -1.18034980745454   -2.28355345000322    0.59182018099631
H          -1.59277437276832   -0.87249505937988    0.13710728796467
O           0.53716139161551   -1.51093677621377    2.61425936084379
H          -0.35536519861894   -1.31693384992420    2.27220509197611
H           0.83722462109413   -2.24412879350404    2.05881770327431
O           1.94567662863340    0.49857904248211    1.74400135273918
H           1.45974234155633   -0.23147881494517    2.23124582740194
H           2.37962974494892    0.06263804706930    1.00162526983123
H           0.83603931533615    1.10935178416522    1.02341824524348
N          -1.53846943213312    2.84415808834425   -1.96302913379622
H          -0.10840915888692    2.21697759163769   -2.08035062891098
H          -1.99886442970323    3.28202467389043   -2.75019755667945
H          -1.98546452233711    1.95434550907486   -1.76130331990341
H          -1.63119232952542    3.44145643380075   -1.15194077051581
