    23
        -45.37110774  Gyration_radius:  2.35435195744 Dipole_moment: 4.205
 S          -0.91724712952131    0.45605877583772   -0.90133718731452
O           0.49834550136672   -0.20781077032103   -1.11707416666724
O          -0.78911548214391    1.87362253433805   -1.10088061822617
O          -1.77912929102389   -0.23798323924919   -1.84665110537079
O          -1.28582250494646    0.11064000621395    0.48774162223008
O           0.40295183894653    0.67355849601837    2.44513461279352
H          -0.29169924476610    0.46139838648789    1.78379658505444
H           0.23524356692970    1.57942055957761    2.71403916643238
O           1.06298666593202    3.31486374406792    0.09183181471854
H           1.32706958140835    3.98557110906463   -0.53967830853115
H           0.29533124866869    2.85358371725687   -0.31663613732363
O           0.79146518040367   -2.85370833501154   -0.62251440351725
H           1.44221298793843   -2.89702903269898    0.08116146220984
H           0.84362089965050   -1.94634629742835   -0.98173771244975
O           2.14501307659028    0.90018072751089    0.44359659587656
H           1.20151814895138    0.25998748785787   -0.52306898601190
H           1.97640636838673    1.85611813983990    0.29598852447351
H           1.70087913452621    0.71540098090794    1.30220647467391
N          -1.79578045290597   -2.24193747820592   -0.32544256861203
H          -1.91000202502196   -1.60526095974635   -1.19248074015134
H          -2.58455375705448   -2.85303328308349   -0.14615055750216
H          -0.88514922427670   -2.74737641642923   -0.39958973325031
H          -1.68454511803775   -1.44991887280518    0.36774534645837
