    23
        -45.36376337  Gyration_radius:  2.40134674759 Dipole_moment: 4.517
 S           0.42844222968339   -0.31551859380941    0.95039671042512
O           0.02731791403681   -1.41439970949024   -0.04096375295995
O           1.22817749488023   -1.05687146606701    2.03681227645475
O           1.30298260284841    0.62395032801465    0.30233423145419
O          -0.76640428325853    0.23009336512332    1.53103930659623
O           0.56800198748550    2.80295372299885   -1.11224220006077
H           0.85953617025002    2.05404799792606   -0.55834293052627
H           1.10926274210667    3.55212861625206   -0.85984042216227
O          -0.20288883001184    0.81919537512726   -2.94873948671613
H           0.18440996569119    1.66344006430290   -2.67770851335334
H          -0.97241518498208    0.72159774666589   -2.35756991542560
O          -1.83492709436554    1.21017402527384   -0.79876988001842
H          -1.62134183477586    0.82411584458291    0.06282891491396
H          -1.41304318877846    2.07755204691449   -0.80526026500301
O           1.48188406792212   -0.92794447012800   -2.00579804294131
H           0.61705885505368   -1.33358201730793   -0.90471394582304
H           0.85285054711638   -0.33546605638228   -2.51538886210570
H           2.06124489536043   -0.32727949569029   -1.52314822265494
N          -0.85473164787790   -2.26088206936570    2.91005186854120
H          -1.38444256866671   -1.44351907771755    2.62098879634260
H          -1.11278546948773   -3.03762302780979    2.31567109963821
H           0.52438663298226   -1.63764110069107    2.50935986589244
H          -1.08257601322162   -2.48852202871621    3.86900334949182
