    23
        -45.36376322  Gyration_radius:  2.40127241401 Dipole_moment: 4.513
 S           0.11317010578834    0.16042225104939   -1.07158639888535
O           0.52514962467016    0.03261387877269   -2.54916440419880
O           1.35454131577028   -0.28965019949607   -0.29198061814499
O          -0.13792781834780    1.54124205090653   -0.76728185477546
O          -0.97104199004120   -0.75010353911682   -0.82065136878801
O          -0.61046250235388    1.19819936445770    1.91479956061043
H          -0.36431596088620    1.46558928826285    1.01765612622226
H          -1.55525933282249    1.00694925084900    1.87738597765769
O          -0.49845007968370   -1.41925491257127    2.67250017761097
H          -0.24688243724791   -0.48016822275370    2.59450137659753
H          -1.43434193767706   -1.42330870924323    2.42714630950082
O          -2.75525247799201   -0.61509758372986    1.20095618111273
H          -2.15784647703872   -0.65371983917979    0.43004266863377
H          -3.63982037399225   -0.76483976667744    0.86469779475733
O           0.65452140766886   -2.50648855474901    0.60658134066395
H          -0.11546286157072   -2.58051103351790    0.03114797446645
H           1.18763710638240   -1.24810110993702    0.10119675938010
H           0.29390549777274   -2.20272635653803    1.49213317133038
N           2.16980421439593    1.98641517116087   -2.37784857250927
H           1.54960732960150    2.37773633685272   -1.67464425623323
H           1.23397392009381    0.76587265210054   -2.67288109646100
H           2.37230894145324    2.68871842942245   -3.07721065329286
H           3.03244479605694    1.71021118368037   -1.92749618525584
