    23
        -45.37914098  Gyration_radius:  2.33080603214 Dipole_moment: 3.743
 S          -0.53779733072767   -0.77409531164750   -0.03149713264812
O           0.20319613814706   -2.15113865655034    0.19239233409170
O           0.28118193517681   -0.02321029284157   -0.97503507059870
O          -1.86999140466700   -1.04356289830639   -0.51941041284092
O          -0.52743746045502   -0.13754659452661    1.28923086766301
O          -2.13229846266691    1.73583469197179    0.18058956414430
H          -1.70859690345929    1.10158761552720    0.78003313656642
H          -2.59203766681345    1.18311861617386   -0.45737063843087
O           0.25692423375232    2.65631789115107   -0.72116123168432
H          -0.67751035433933    2.65525414705460   -0.43435667333805
H           0.35088826164272    1.79286263637073   -1.16362244398879
O           2.66365718794296   -0.41386480606324    0.06460311809640
H           2.58300913017004   -1.29026338811332    0.44794921051487
H           1.86837753532782   -0.31658643089730   -0.50529155972382
O          -1.32353531225692   -3.37246355899874   -1.57224891144880
H          -1.93566331774810   -4.03728332315284   -1.24846755113362
H          -1.74258715134624   -2.50306471855640   -1.39915231927334
H          -0.17785861607754   -2.76944841791012   -0.46866977011277
N           1.43034537420824    1.56930661448055    1.34212103513035
H           1.70698185930925    2.08020863531088    2.17260923116440
H           0.62307061142083    0.89951253445176    1.51384219091267
H           1.06963064484497    2.20126511259151    0.55221300814308
H           2.18805104861493    0.95725990248192    0.96070001879516
