    23
        -45.37914124  Gyration_radius:  2.3300884603 Dipole_moment: 3.733
 S          -0.16110107530050    0.32680251844613    0.87181621738409
O           0.80088179837416   -0.56967330975734    0.24252071497550
O           0.45665272626145    1.34968200547755    1.68251777303494
O          -1.09675068086151    0.86626033414947   -0.11957000352262
O          -1.05886976558080   -0.57914533551117    1.80393897703262
O           0.97126715628799    2.40083677723673   -0.94736732233466
H           1.42523711797626    2.50996689154047   -0.10722549431055
H           0.09609752543992    2.06276177126102   -0.70063174596889
O          -0.79209902054909   -2.53186848819426   -0.47944824033693
H          -1.46022771775186   -2.52282729135025    0.20977953922616
H          -0.07368199938836   -1.95358395834424   -0.13853926822369
O           1.62440263354525    0.09948987974791   -2.23067209167675
H           1.66280439728448   -0.30842050348953   -1.34618203154206
H           1.56808138921678    1.05442122782574   -2.03002649419497
O           0.38916256839220    0.00677957711304    3.92438852119737
H          -0.02307161567169    0.53033953130695    4.61540877963512
H          -0.62076814133457   -0.57158461495961    2.68283554000731
H           0.65843698817608    0.63706445623503    3.22332507647389
N          -0.89848924704626   -0.56977243295313   -2.27539010235601
H          -1.14049355419676    0.08984817445513   -1.47776501811602
H          -0.95798160677642   -1.52027108777508   -1.84262969225510
H          -1.50226092360721   -0.45729190411451   -3.08163640529360
H           0.13277107710894   -0.34981419834825   -2.47944722883386
