    23
        -45.37171478  Gyration_radius:  2.44048804688 Dipole_moment: 5.582
 S           1.07450098798114   -0.49156809194255   -0.19293091579783
O           2.40944884971399   -0.08802411482475   -0.88032190969965
O           1.42203983837961   -0.98997435158462    1.12995385908301
O           0.27518187533993    0.75408572645546   -0.08181717823307
O           0.39525813755041   -1.47118143874759   -1.01242088600368
O           0.00469437096327   -0.71834471518540   -3.51517175587339
H           0.46158417513966   -1.35300423209727   -4.06958983493384
H           0.06088107816008   -1.07112629292074   -2.59919713780926
O          -1.94983910181499   -0.69215612390758    0.28916423704721
H          -1.26299691289666   -0.04273836505080    0.05057154523522
H          -1.62770339786476   -1.50974724256227   -0.10367715614115
O          -2.17011822825179   -0.22124437276902    2.88261916457923
H          -2.17203410126196   -0.54034430725492    1.94618617573541
H          -2.98376446827086    0.27366076413881    2.99293065937933
O           1.22604175873098    1.46395325347538   -2.56149426677419
H           0.62746488325093    1.62961718239224   -1.82053819877877
H           2.14331307991949    0.53390612308161   -1.61868072650256
H           0.76724741517879    0.79649491924604   -3.11713804848050
N           0.25829317605551    0.78042461741115    2.50706803757227
H           0.84036154464576   -0.07361703989762    2.19723477527711
H           0.73312579202167    1.37215122857042    3.17914087097513
H           0.15290280311490    1.21290596138300    1.56164599896766
H          -0.68588356576776    0.44587090257950    2.83646268118972
