    23
        -45.37171475  Gyration_radius:  2.44040032014 Dipole_moment: 5.582
 S           0.74921505503402   -0.42843015118228    0.83000140624710
O          -0.12748209772772   -0.57730611381977    1.98256059564521
O           1.41599836059120    0.85435971046422    0.78111901909885
O           1.81589576646627   -1.55473907382984    0.93499041831626
O           0.00013964785172   -0.68588314836086   -0.42521596754181
O          -3.37594588833646    1.24551905100221    0.34192407154883
H          -2.48318475311765    1.61603403513171    0.13109550305790
H          -3.94310112724807    1.49481628943754   -0.38972572442091
O          -0.91048309992452    1.83404889870979   -0.41365352978565
H          -0.57229077764984    0.94294359324923   -0.61863209447542
H          -0.22727723685257    2.20512528996202    0.15386751277151
O           3.23602302589247    1.06625663790904   -1.12293033527555
H           4.07151374362615    1.24562474995339   -0.68853640181588
H           2.55216748182266    1.10315146954985   -0.41749940027177
O           2.38371563224158   -1.43034463711122   -1.57451751822583
H           2.18850349319603   -1.64609232922259    0.01000928261330
H           1.44276129240064   -1.22771574230428   -1.66561350429292
H           2.83730899435015   -0.55966157924873   -1.60444483568468
N          -2.26364805925485   -1.12877874907660    0.75058843522188
H          -2.79309261687116   -1.98057682970508    0.89694650963319
H          -1.53233454109250   -0.93774991635832    1.52060107188622
H          -1.59520092909643   -1.17771721840123   -0.05109758353688
H          -2.86920134608433   -0.27288422692740    0.63816306935520
