    23
        -45.37036575  Gyration_radius:  2.38257935978 Dipole_moment: 6.214
 S           0.65047830182007   -0.13601893634385   -0.80444358334896
O          -0.79805603845102    0.08610831796085   -0.83982322533434
O           1.04472057291331   -1.17757472621784   -1.74845038904695
O           1.36146668958190    1.15547819756728   -1.20887410465422
O           1.06715786783242   -0.50577962951604    0.56013126108713
O           1.11997731405301    1.37347890997359    2.42409131468249
H           1.05250352498310    0.62386074687478    1.79285396368597
H           2.02845833411410    1.38189771902066    2.73022181689432
O          -1.89967746980350    2.44557916291067   -0.31808416577755
H          -2.18054952641318    2.77647335990636   -1.17288134342881
H          -1.58390231819920    1.52957861498780   -0.47176953426391
O          -2.03755929619013   -2.16405780181824   -0.32828987541972
H          -2.60300836897689   -2.32511826659522   -1.08572083941304
H          -1.66094620189754   -1.25788202934242   -0.46445691349988
O           0.63171843388597    2.99100815695830    0.35144726519422
H           1.09575172142552    1.94637500956974   -0.58479118680540
H          -0.33992972535956    2.98196471881042    0.20534253218597
H           0.77098093262630    2.56761020757861    1.22736670313156
N           0.46156868441858   -2.92839925508148   -0.03415106850614
H           0.79171900745892   -2.45300120330051   -0.94637498766745
H           0.75647039997272   -2.16381456797892    0.62121397845679
H          -0.59054160601946   -2.90939117903003   -0.07092685833154
H           0.86119876622473   -3.83837553689587    0.16636924017843
