    23
        -45.36948926  Gyration_radius:  2.37987260691 Dipole_moment: 6.311
 S          -0.89256242991001   -0.39601450624242   -0.05879365756149
O          -0.06869356261708   -0.99857409590761    0.99530249299808
O          -1.52079633047850   -1.39111551290495   -0.88718793802429
O          -1.96065070304745    0.49157438327473    0.58703736296755
O          -0.03542294973317    0.48842943189964   -0.90181379506227
O           1.14997432586175    0.60747716086988    2.69505181546016
H           0.78577525688627   -0.03038140970792    2.04167508843675
H           1.05123915003501    0.19058392742239    3.55269965832220
O           0.62723808421293   -3.08313006143884   -0.38631057579495
H          -0.24434066546123   -3.47353469539927   -0.50581887490521
H           0.46685437570221   -2.36125832762648    0.27398639958108
O           0.07466863574184    3.13152016025214   -0.50805259404533
H          -0.66410808161652    3.46519681094153   -1.02013789826046
H           0.13079691035294    2.17393225851281   -0.70413232521437
O          -0.77209472688010    2.29021639930634    1.90527496215744
H          -0.01189528542455    1.80983009860203    2.30303421196128
H          -0.39615971857218    2.80392474984127    1.16000409526162
H          -1.51792287720596    1.22570679538725    1.16848833671349
N           0.78734946187186   -1.39620148583081   -2.38163102061641
H           1.67135777992725   -1.28488015057148   -2.86857190053187
H           0.81630004633825   -2.16879652390043   -1.62941747994319
H           0.49964227093303   -0.49772624320188   -1.80896669203020
H           0.02345102308579   -1.59677915357850   -3.02171968187283
