    23
        -45.37997224  Gyration_radius:  2.33271704965 Dipole_moment: 3.136
 S          -0.71833069482522   -0.58862349783443   -0.19609611766342
O          -0.94704767465199    0.84521390399412   -0.20420183647699
O           0.69722735957892   -0.89318224306142    0.06849765487580
O          -1.50750707296515   -1.11238570582653    1.06890080985754
O          -1.21122748771874   -1.27978058983357   -1.36345625067163
O           1.15473577430334    0.00160180990013   -2.43104807428812
H           0.32442565049630   -0.26179466452467   -2.83703098180077
H           1.17221211595286   -0.48289184859308   -1.58963976854278
O           1.03924523927480    2.40803512672631   -1.18526853895854
H           0.12167662567103    2.18734032280578   -0.95075714962907
H           1.27315109744431    1.71591961806360   -1.83573347178605
O          -0.55973589051133    1.43321647564866    2.33723575364862
H          -0.88570231765356    1.32627301688247    1.41725305526063
H          -0.89957406711543    0.66756027936964    2.80559929660469
O          -1.81050053497445   -3.47550233086939   -0.06597589582177
H          -2.70263155860379   -3.76021415065649   -0.27719534513157
H          -1.54593632384652   -2.85116808262869   -0.77367888534898
H          -1.63758542830104   -2.07091586520364    0.90744117160066
N           1.76978455109432    1.25224682697353    1.04613372586765
H           1.04668174845211    1.50202913638872    1.75803689125117
H           1.63205144458789    1.87568589170240    0.18528038897048
H           2.71501734236537    1.27644901467957    1.41126513452589
H           1.47957011194556    0.28488754589677    0.70443847365628
