    23
        -45.37131441  Gyration_radius:  2.39818994396 Dipole_moment: 6.334
 S           0.63762739792272   -0.15434420460859    0.99828663605218
O           1.59565769336695   -1.13259982553371    0.48470876820600
O           0.47691721360215   -0.44492160643207    2.51228185158017
O           1.05399363774293    1.21687958598535    0.81373293296916
O          -0.68293843592227   -0.40151237488912    0.37046985366331
O          -2.22212393385716    1.57755937700349    1.31869885600938
H          -1.76097304355836    0.77983144240594    0.99242834316763
H          -2.24832641617806    2.19026171130375    0.58082674926712
O          -0.00943766904525    1.10575427817815   -1.71068855712213
H          -0.46649351515156    0.57482114135219   -1.03122618513160
H           0.66994262883806    1.55909664735524   -1.19548026590474
O           0.75057617720981   -0.90252342587235   -3.26440075203948
H           0.43578308462782   -0.07094515675994   -2.82846486039432
H           1.68835779683838   -0.77923061542987   -3.42308540765443
O          -0.20554229004875    1.97030053229281    3.08047814796585
H           0.40848929182533    2.17427441664992    2.35824752703239
H          -1.09112412773856    1.96877577593306    2.66480609790387
H           0.19124061778380    0.41988440646221    2.93210611628490
N           0.14257085094545   -2.38098413418932   -1.15541297774715
H          -0.68356608981883   -1.91504912819772   -0.75123751938671
H           0.35693461845215   -1.94671653383788   -2.09761696923391
H           0.90803938605979   -2.01814402825056   -0.46290966508550
H           0.05439514610709   -3.39046828092362   -1.18654871040391
