    23
        -45.37131446  Gyration_radius:  2.39812833506 Dipole_moment: 6.335
 S           0.34875861985131    1.13620506655728    0.12377331357489
O           0.13562622124091    2.38418342910209    1.01784810720445
O           1.79305680441339    0.92130871772545    0.04429758445746
O          -0.26825904536018   -0.01102711900983    0.83246801795148
O          -0.27661464964593    1.35277584632121   -1.16058099290787
O          -2.89592639575035    0.50649948915799    0.72240374492419
H          -3.19155416870881   -0.07357846201257    0.01766319082588
H          -1.95813444390437    0.28220427277689    0.88275979938080
O           1.79887932641670   -2.75765176856931   -1.09162075978332
H           0.91696566449871   -2.36906517434227   -1.31935279276855
H           2.39407184088952   -2.49324695440831   -1.79567108807714
O          -0.43118452795500   -1.36941103126388   -1.44456978484541
H          -0.37844837201596   -0.55659572208629   -1.96329454221463
H          -0.51501040933734   -1.02996137636998   -0.53340314233865
O          -2.12540615504037    2.98166777380112   -0.05578408649089
H          -0.74592937843540    2.77527527151516    0.74274547181832
H          -1.69701875673437    2.61834253224678   -0.84616691655188
H          -2.65413241846851    2.24242734401473    0.30604126094370
N           1.98109961070134   -1.34340179773906    1.13784354116514
H           2.12077538261388   -0.34964263819942    0.70190312653121
H           2.01694051631060   -2.03355108106796    0.33496067903005
H           2.62621550384602   -1.56300983610820    1.88843492281580
H           1.00522922056077   -1.25074678205077    1.45730134535557
