    23
        -45.37997263  Gyration_radius:  2.33303718805 Dipole_moment: 3.124
 S           0.90434596563171   -0.19701899051438    0.20303919838917
O           2.17994642644205   -0.03735563632672   -0.45342079420256
O           0.17803961820627    1.07809533449333    0.31597790809463
O           0.05708635147041   -1.22696487959336   -0.37111835608285
O           1.15960300987404   -0.67139819909832    1.68859508454271
O          -1.69324400183521   -1.57737120385416    1.57023369013007
H          -1.17860414946770   -1.45068551584570    2.37037708064128
H          -1.02492968619134   -1.66142393703715    0.85592615692505
O           0.40611098039695    1.21895934492310   -2.36465379174414
H           1.24631285823645    0.76349497228740   -2.46576148401628
H           0.35577638278678    1.41699187646359   -1.41534009962768
O          -1.72839750060663   -0.45097150375938   -2.25780176540827
H          -1.10096704361299    0.22505462923057   -2.58367282249283
H          -1.15072430874457   -1.08019805087131   -1.79309819244284
O           3.46518436937491    0.61069663035389    1.73506428702556
H           3.19528237213045    0.54354571143629    0.79516040359052
H           1.96720680691196   -0.19324932961490    1.97348498675785
H           4.26541448389260    0.08787431741694    1.82362035907906
N          -2.34533467665200    0.54177676988150    0.08365500942148
H          -1.36302050621016    0.92532930781265    0.24156545570935
H          -3.06967706180361    1.23565201591061    0.22913289306778
H          -2.31198031561660    0.16814653333803   -0.92040882558020
H          -2.41343038461361   -0.26898016703239    0.73944364822122
