    23
        -45.37054523  Gyration_radius:  2.35974071608 Dipole_moment: 7.506
 S          -1.07507647763836   -0.33927632503167    0.27201581960085
O          -0.53076800342243    1.00336940589918    0.05346263060410
O          -1.34794394025185   -0.53821446099589    1.76146531030745
O          -2.33389834521466   -0.52507893692999   -0.44311751471155
O          -0.08894966272996   -1.34206543539873   -0.17571184988174
O           1.11132596861926    2.30817264177811    1.70082341244609
H           0.44441447063294    1.94957647225936    1.08032676715664
H           1.95375784804023    2.23914951617171    1.24653576496352
O          -0.27654900239546    1.43472776900374   -2.51031770314816
H          -0.83928346128283    2.18649988795721   -2.70512292813760
H          -0.29199178603772    1.34252946989791   -1.52277500259028
O           2.19453955180906   -1.23563120218015    1.13026746990539
H           2.44224823809215   -2.14951761370891    1.27996139374290
H           1.37837854430205   -1.26315382752174    0.57982188197265
O           0.76577814473815    0.01095191744509    3.02683449915320
H           1.42501676634854   -0.47310867266519    2.48386721853170
H           0.89387003825645    0.95564763189328    2.78847944551025
H          -0.51046053149191   -0.32371867196787    2.33386125906629
N          -1.06564638326268   -1.07552744687206   -2.54348399979884
H          -1.86833916008990   -0.89757624624416   -1.83830888867593
H          -1.27833795896971   -1.69550251946299   -3.31702145384455
H          -0.72892620611537   -0.11800576390888   -2.82621787032845
H          -0.37315865193809   -1.45424759940462   -1.85564567184776
