    23
        -45.36587182  Gyration_radius:  2.32384874121 Dipole_moment: 5.716
 S          -0.91575267427681    0.37374944831940   -0.65448910253211
O          -0.14731548465359   -0.66889709324028   -1.33497410688257
O          -2.17166530198689    0.69518424866058   -1.49402741634351
O          -1.38537705558979   -0.14285454391660    0.65254630259115
O          -0.15356034070886    1.58957647242720   -0.47972274082600
O           1.92596028980797   -1.13099454386569    0.10445684711163
H           2.17800395499677   -2.04977253309120   -0.00307639405655
H           1.16470353099518   -0.97068357029515   -0.52721620370788
O           1.13904134499308    2.25425702569978    1.79918721241434
H           1.93471391239782    2.18709638431158    1.22078200548264
H           0.42534801995893    2.40604696428707    1.15502779808511
O           2.60360429566168    1.59729796826172   -0.31250954912883
H           1.71999973015851    1.70212974291458   -0.70191899220657
H           2.75253679362771    0.64522164713546   -0.27514780586528
O           0.59191851674340   -0.16485569385247    2.11102408307106
H           1.23061905860172   -0.60330500466461    1.47013559600200
H           0.85292727111051    0.87192121758791    2.11626651058589
H          -0.34605382929097   -0.17945618643514    1.56094023261723
N          -2.77108579638906   -1.82062916224765   -1.30456191941889
H          -1.78856404592151   -1.97974392072652   -1.50315499337764
H          -2.89174008026662   -1.87404759490043   -0.30081074183872
H          -2.62146180239575   -0.19529613857759   -1.55297213570644
H          -3.32680031757058   -2.54194510380322   -1.74578451606687
