    23
        -45.37164942  Gyration_radius:  2.36897739427 Dipole_moment: 6.478
 S           0.16929492025960   -0.22979259684725    0.95663663490465
O           0.31818183274147   -1.52870891426478    0.28108200862293
O           1.33983012059482    0.06217401625031    1.77842283925015
O           0.23281881723251    0.84836986190333   -0.19077549152880
O          -1.09456802660186   -0.09068513123112    1.63296779862125
O          -2.24133829830115   -1.71910176716727   -0.45297764809585
H          -1.29476106639506   -1.81184183229358   -0.23192470093172
H          -2.67291651134146   -1.53587135381251    0.38634897018578
O           2.53941392379589    0.91964596154980   -1.60916440263954
H           1.64436037539422    0.97225196713151   -1.21661213082656
H           2.88566634871669    1.81350371697482   -1.60898187208532
O          -3.02242051573953    1.61815156501988    0.95702512335190
H          -2.37764311125200    0.97672769085361    1.32180880793544
H          -2.85082668526887    2.44878965974266    1.40249069668553
O          -1.97992992771014    0.76272860216783   -1.37032786366996
H          -2.18595961508729   -0.19512902026117   -1.25239936917331
H          -2.53613844768601    1.21748164996576   -0.70494877665593
H          -0.66432183442882    0.83892301362768   -0.72550750251928
N           2.82163855853099   -1.09828970292695    0.11316441964909
H           2.46626467072550   -0.53731602416926    0.96992622370007
H           2.99487500178621   -0.41845445740603   -0.65727889365246
H           3.60197728328410   -1.71945500260740    0.29407715139537
H           1.90650218675572   -1.59410189219860   -0.07305204251712
