    23
        -45.36510603  Gyration_radius:  2.65179734986 Dipole_moment: 8.985
 S          -0.44074445895572    0.46914209717133    1.14616665609515
O          -0.42538570452771    0.48966168496360    2.69880120593265
O          -1.81664862486679    0.29629651390569    0.70776795109117
O           0.14474876578231    1.72073663593570    0.67074394888644
O           0.37875201476758   -0.67404127491876    0.70400111123040
O           2.78496312638560   -0.53135667189041    1.79488027730361
H           1.93215214358817   -0.61784326500424    1.31239731930280
H           2.81472613859114   -1.26789423747155    2.40793020912364
O          -2.02588372213291   -2.70408514133472   -3.07427823506754
H          -2.89616249471573   -3.00560025404125   -2.80430874147508
H          -1.52551101716642   -3.47376580981345   -3.35360549850984
O           0.01088804975855    1.82516606993833   -1.94865783732122
H           0.15878961419914    1.84493954780000   -0.96977280888870
H          -0.49861083468179    2.61332177999178   -2.14460479084324
O           1.80661736990736    1.76709810113549    2.80210889973878
H           2.39165799307106    1.03137574050355    2.52349290148304
H           1.47159901647925    2.14750344807276    1.97513726271564
H           0.41394193342676    0.98259549486775    2.94629922724969
N          -0.94883950743835   -0.61026530060878   -1.53135131024374
H          -1.63336422724559   -0.29506407585747   -0.78690123513718
H          -0.18164772376385   -0.94393987612071   -0.90631608343645
H          -1.31057964756043   -1.32702258720697   -2.17255821333154
H          -0.60545820290440    0.26304138997325   -1.99737221590873
