    23
        -45.37824524  Gyration_radius:  2.39098343884 Dipole_moment: 5.931
 S          -0.68703035771385   -0.03084802067333    0.66038037930595
O          -0.12612421158107   -1.32636699356548    1.02617136852166
O           0.39593180542111    0.88764192634958    0.24148522881066
O          -1.68308058505182   -0.13381264129304   -0.38563121762831
O          -1.35044133800180    0.58982388413379    1.91218224238047
O          -0.01287137846612   -2.30773291279879   -1.38676720610418
H           0.02699696108107   -2.07622073456688   -0.42593982772235
H          -0.95357331277538   -2.38052319671624   -1.56827783076456
O           2.06021798709641    1.35557282982479    2.25629711758999
H           1.51304789216365    1.20045761418742    1.45659616340352
H           1.93977832171639    2.27906788792352    2.48468244486814
O          -1.68107630069523    1.03950188429851   -2.73411727398172
H          -1.79945411981989    0.72387257388607   -1.80670287162810
H          -2.45061765274072    0.73403453620492   -3.21692926575202
O           0.41637430567344   -0.38398984333215    3.49265431229846
H           0.44053590433670   -1.09982657666917    2.83880966938824
H           1.16683574482094    0.20230740328347    3.26061029185744
H          -0.76751623485760    0.29338847131439    2.67640289537888
N           0.74168091853273    0.09043256417486   -2.19169998391446
H          -0.08144235795354    0.50681486606566   -2.68225245760268
H           0.72965927716642    0.52171007147342   -1.21132462723174
H           0.54480442346776   -0.93933461878197   -2.02063245158341
H           1.61736429817983    0.25402904528065   -2.67599707989123
