    23
        -45.36510614  Gyration_radius:  2.65148340875 Dipole_moment: 8.977
 S          -0.73175399152621    1.09102269311181   -0.03559652622878
O           0.45637802022346    0.57754508651580   -0.74168824028769
O          -1.14963569518071    2.42158763334415   -0.71848875738629
O          -1.83993589355118    0.14743772767305   -0.16539089983464
O          -0.40329522503716    1.37659722344073    1.35212271374019
O           3.46879110006065   -1.15143517565447    2.73754387899996
H           3.71816084319582   -0.45131062845155    3.34486172020167
H           4.26782828248281   -1.45712326319864    2.30325097463994
O          -0.04054004616673    0.39104172863200   -3.33367709034989
H           0.19501242675883    0.38204968001253   -2.37868344906242
H           0.51337836892296    1.06378599048083   -3.73344675666484
O          -1.26681158175304   -2.07712697191605    1.10508378149563
H          -1.95935124587348   -2.17981977689057    1.76008591691297
H          -1.54154623821451   -1.30315520795067    0.55201192310138
O          -2.48446333877188    1.21975448245519   -2.56179172109273
H          -1.71653260369669    2.14761036271240   -1.50099185222817
H          -1.72301702420452    0.86807139638369   -3.06937645811955
H          -2.62883876149308    0.57756434641613   -1.84931792318190
N           1.01375852460455   -0.76258281924322    1.41664909952205
H           1.14942414725288   -0.50261917811044    0.41447838534193
H           1.88293799340127   -0.99830439336524    1.91136751109854
H           0.54283597287565    0.12665881758801    1.74833519024231
H           0.27721595569221   -1.50724974397019    1.44265857914232
