    23
        -45.37345185  Gyration_radius:  2.25557328249 Dipole_moment: 5.405
 S           0.68952338869598   -0.06006017122190   -1.28307942757445
O           1.55442304982642   -0.75816049654855   -0.33266953451635
O           1.24387164591543    1.22263018938762   -1.67878148840956
O           0.24146314732675   -0.91147817595340   -2.35528007375763
O          -0.62065315458644    0.28761325433630   -0.42734502584689
O           1.43090277929989    1.78103044551761    0.94818227388028
H           2.23609647431666    1.35506022149297    1.24991089980216
H           1.41343397584666    1.61752628047089   -0.01546000784768
O          -0.61558156373544    0.58169621921843    2.32732128901429
H          -1.40001616578172    0.91150153501525    1.88290544791037
H           0.13458311389922    1.04320083266858    1.89053568387390
O          -1.33512504224622   -2.54615388597150   -1.01172118074125
H          -1.26796908205726   -3.38436070842068   -1.47296397972566
H          -0.82289126651252   -1.90447507956681   -1.55934221672190
O          -0.84901590885555    2.77696458250160   -1.29019063617848
H          -0.55281631836939    3.36636833146761   -0.59133166575633
H          -0.03455966825502    2.44531691299029   -1.71626820158683
H          -0.94429909421513    1.15761735526991   -0.74756242902621
N          -0.11458543596906   -1.82720545335472    1.27143742466436
H          -0.80093844002807   -2.15930941609957    0.55836628798495
H           0.70346674655362   -1.47036386939620    0.66681084361089
H          -0.45016952249713   -0.96249981638584    1.77357018264548
H           0.16085634143181   -2.56245908735998    1.91295553430893
