    23
        -45.37383450  Gyration_radius:  2.27506322143 Dipole_moment: 5.648
 S           1.20989223392651   -0.60734258459949   -0.57858186153596
O           1.32560664087404   -0.94435324041202   -1.99967180440040
O          -0.04484759316225   -1.14566575259753   -0.04661955341367
O           2.35899069077039   -0.93977317276458    0.21835177047697
O           1.03316260359870    0.96238024798658   -0.57994726444343
O          -1.55978189259568    1.41465372174831   -1.32146751432745
H          -1.90272121027302    1.22057895411789   -0.43355403031268
H          -0.60692808248670    1.56250002921921   -1.18558043076583
O           1.82940188615339   -0.57361745968868    2.76180328986920
H           2.02169161326051   -0.83798734329135    1.83192411374527
H           2.68406547803828   -0.50211449045305    3.19099797056291
O          -1.75394508335406    0.32370110368395    1.21096449957642
H          -1.09924899712867   -0.29089010041956    0.78206278559359
H          -2.20120524153596   -0.19315038426887    1.88220163190128
O           0.59960122740479    1.59906759357180    1.84842401785879
H          -0.34104471062617    1.35185020990533    1.83610552050523
H           1.05678285415845    0.87487725271378    2.33536017497181
H           0.95968625496761    1.27775466528217    0.38506347795700
N          -1.14919164997828   -0.92166705416148   -2.46169805827100
H          -1.48313572067170   -1.10612284629512   -3.40190581150142
H          -1.43778581501405    0.04106493844857   -2.09914888504180
H          -1.46372676955482   -1.62331208124046   -1.79427084593259
H          -0.03531873673618   -0.94243219649764   -2.38081321307965
