    23
        -45.36554729  Gyration_radius:  2.64921252025 Dipole_moment: 7.619
 S          -1.02320141851153   -0.75404428353247   -0.16834242465107
O          -1.53471913090342   -0.48204913175620    1.16266499122234
O          -0.53793727685308    0.47485675637426   -0.81697815165110
O           0.04558832494271   -1.75797892061589   -0.13567884043861
O          -2.18276557324282   -1.31822268722861   -1.03235155336067
O           0.75692850813092   -2.46199022719695   -2.58769871505356
H           0.58825963997828   -2.21606629233941   -1.65089662041933
H           0.52278580769647   -3.38876699665557   -2.66102724210139
O           1.95286856003959   -0.89308390177105    1.46794264276191
H           1.31682386986516   -1.26790392021636    0.81115611862421
H           2.02290978023801   -1.55286909061918    2.16000932465988
O           0.31525006736171    3.84828918908374    2.50865263919110
H           0.70493212371262    4.57462976298570    2.01716333965292
H          -0.53394259715670    4.14644535197799    2.84224919085493
O          -1.07089664430019   -0.59769756309280   -3.23831168527074
H          -0.73214412092247    0.10806181547617   -2.66511438038540
H          -0.35740145826461   -1.26977099178685   -3.25943055325385
H          -1.92154222943838   -1.11957913940777   -1.98150748358839
N           0.35772601412507    1.23167505149037    1.47918714096819
H           0.20404752501688    1.25356224601776    0.43720925311899
H           0.42513406512827    2.15985591198335    1.91543835389669
H          -0.49586026666260    0.67762071394874    1.74672291437669
H           1.17715643001837    0.60502634688209    1.64894174084492
