    23
        -45.36701641  Gyration_radius:  2.40810616877 Dipole_moment: 7.743
 S          -0.82661283758139    0.13113738923160    0.11335243817986
O          -1.16661927787075   -0.34930466923756    1.42908223516735
O          -0.93182011050592   -0.89640419229335   -0.91600581388618
O          -1.54211101580658    1.35700521680260   -0.25713118524229
O           0.68524116317639    0.58307180437828    0.11322880822348
O           0.46055874968975    0.34411353753924    3.49063910214674
H          -0.12962418478462    0.23729285481570    2.72290011196095
H          -0.09201883574702    0.66881762822236    4.20327564516918
O          -0.36713417397659   -0.04090105698117   -3.29057287271935
H          -1.13611121617874   -0.21945492676263   -3.83496196386344
H          -0.55919883045483   -0.46730347984993   -2.41050127646884
O           0.42497157264034   -2.31500354773905    2.47802586574169
H          -0.37421675056108   -1.86208271035155    2.16122191062310
H           0.82421211954487   -1.67904393041672    3.08749390278213
O           1.46094042413581   -1.83530261893549    0.08346658217821
H           1.23772922730315   -2.16078244752818    0.99034608371454
H           0.67627428629494   -2.01008291458538   -0.45353447371815
H           1.17886424582885   -0.29608709623813    0.15784399702729
N           0.05458160002125    2.20382799430518   -2.00197850214490
H           0.94844196832790    2.11532110081384   -1.52070666060916
H          -0.06760358266389    3.12349471352326   -2.41255701193974
H          -0.04446726488820    1.41452575707466   -2.70406617136516
H          -0.71427726607613    1.95314556398230   -1.22886077078319
