    23
        -45.37824520  Gyration_radius:  2.39093881125 Dipole_moment: 5.927
 S           0.55947077296181   -0.75352272593082    0.16499168263345
O           0.19669324428507    0.11762298099382   -0.97575913078125
O           1.13428685008166    0.04798613443539    1.23923730634411
O          -0.59566081584033   -1.51227089105356    0.59733685615601
O           1.63563653370731   -1.74190097668969   -0.34207305353108
O          -3.03348516721097   -1.42901250429001   -0.37342602330142
H          -3.58137739161788   -2.01033885837781    0.15618108996782
H          -2.10252837020104   -1.61100325785969   -0.10148219391746
O          -1.12152547732117    0.78613470970762    2.31805390648405
H          -0.19448883714267    0.61319064164678    2.01946031840871
H          -1.42087250399292   -0.06511959120465    2.64801025635911
O           2.35981179589386    1.26820102489957   -1.99835585813222
H           1.51363670766559    0.91222400477053   -1.65166896746783
H           2.46999535764444    0.88673010909179   -2.87121946837902
O           3.53792331888261   -0.06437612311106    0.02478515572864
H           2.49986462805287   -1.23365672330796   -0.26107803455471
H           3.34983956711258    0.54279110398873   -0.72137014479171
H           2.97315446933379    0.24213578702058    0.75117883675771
N          -2.06699872306783    1.03537316921353   -0.13391991172354
H          -2.70704783025708    0.22354956747035   -0.28495948365818
H          -1.81545846528641    1.07741273917662    0.89731183227411
H          -1.14916844076643    0.75967208505957   -0.61241769761255
H          -2.44170123291676    1.90817758434563   -0.48881728326921
