    23
        -45.36701629  Gyration_radius:  2.40837953333 Dipole_moment: 7.741
 S          -0.13333994064709    0.36445277106662   -0.74932321595748
O           0.88908647133414   -0.58369591313466   -1.17615275012920
O           0.35159080240762    1.71922095736424   -0.66464864088250
O          -1.36409451260460    0.23913641151118   -1.53768871458959
O          -0.57868322999987   -0.10597377211139    0.68966839175558
O          -0.32998647142518    3.17341351492101    1.52574144140586
H          -0.64887174163734    4.02502434171459    1.22271820655087
H          -0.22775715366319    2.62686128327506    0.72576793879497
O           2.32568130415265    2.21926345267870    1.16626566525557
H           1.69121056383777    2.67325224529538    1.73778706051714
H           1.87035501544250    2.16807895355080    0.30948365865489
O           0.02499273010260   -3.01347874434071   -1.37400721361123
H           0.45464431467605   -2.11868757394723   -1.28475563127419
H           0.19803367389861   -3.29195910250523   -2.27514144789780
O           1.84384854457991   -0.37864133609123    1.40357221242675
H           0.30264357653554   -0.21831504808465    1.16805940992239
H           2.01255278168206   -0.64393351429925    0.48940768805110
H           2.17109615664740    0.55211325597705    1.47307923263247
N          -2.21242325650756   -1.91399314054062   -0.56030873981242
H          -2.11868315527820   -1.73605796932970    0.43868384495842
H          -1.96106499552214   -0.94036814906676   -1.05083638020572
H          -1.42655750399345   -2.55251526183934   -0.87719178315903
H          -3.13427397402411   -2.26319768214241   -0.80018024341194
