    23
        -45.36001856  Gyration_radius:  2.56386220118 Dipole_moment: 4.111
 S           1.01106328664736    0.25188104173890   -0.72777241635491
O           2.21086320049365    1.11375446009855   -1.17305507809999
O           0.27934137366566   -0.17463448848573   -1.88837837048736
O           1.48786310192724   -0.77954696333071    0.14930707362684
O           0.11661593236166    1.22412055841339    0.06416316737345
O          -0.47738878253165   -2.49512734864266   -0.64783499524921
H           0.34278843887932   -2.27967687664941   -0.18238709903937
H          -0.49943230360397   -1.84931227046654   -1.36773278831327
O          -2.36280861532357   -1.94235538254783    1.16581408654297
H          -2.70576888230988   -2.79868638959544    1.42777481349926
H          -1.70055104667722   -2.12644134508747    0.45983623574988
O          -1.36094035546716   -0.52097210433090    3.19594344196649
H          -2.04292273287593    0.12476441175001    3.38784842064215
H          -1.70160362762929   -1.05531990802556    2.44148448634267
O           0.85590173600368    0.67195343041979    2.38966930674017
H           0.06311929314259    0.22688744326290    2.78838884844566
H           1.40703468528928   -0.03942603795445    2.03642788820111
H           0.37476469425293    1.13265343601128    1.06667458093989
N           0.91147096688743    2.35878204248967   -3.00772095325949
H           1.25445842652213    2.54780928809302   -3.94023315027609
H           1.85540881717799    1.71864189113327   -1.91907225978518
H           0.36992165160669    3.15129202652741   -2.68948581247110
H           0.31080072155956    1.53895910518395   -3.02965941675359
