    23
        -45.37469247  Gyration_radius:  2.32738765282 Dipole_moment: 5.748
 S          -0.61130725203231   -1.24302303774723    0.83081324901089
O          -1.23401514300588    0.03310215028314    0.10431778244421
O          -1.05976311021340   -1.22027811343755    2.20012249639893
O          -1.05024090496642   -2.35582972898316    0.02650090902918
O           0.84915896056443   -1.03160701633427    0.73257747190111
O          -0.74288066774193   -1.90057933363760   -2.50318193182859
H          -0.98194543885014   -2.06111760767064   -1.55082287059788
H          -0.64743277743035   -2.77293699093334   -2.88973427393386
O           0.78515122672897    0.42670704169906    3.03749534217954
H           0.03660568088171   -0.20950580769324    2.94759317512266
H           1.48670434551025    0.00098439609863    2.53259506189013
O           0.06767523655087    2.18907710415912   -1.36739130106683
H          -0.84933323591337    1.94223515024850   -1.51989122592308
H           0.13385337528429    2.35329789610477   -0.41280223668728
O          -0.26879054826746    2.14482913162289    1.41356750165476
H          -0.96493501750747    0.80538067060124    0.64490692024895
H          -0.89513029410718    2.65827619592864    1.92725404330954
H           0.22913823307530    1.58059885339284    2.07934219612251
N           1.16990044351067   -0.26019743927360   -1.67352537572402
H           0.47722050843842   -0.86530314611251   -2.18491505050497
H           2.10114695057346   -0.33446048386375   -2.06751763444925
H           0.83364941480940    0.73188434015715   -1.66316171298798
H           1.13557000410834   -0.61153423461167   -0.64414253560884
