    23
        -45.37824526  Gyration_radius:  2.39101080801 Dipole_moment: 5.930
 S           0.90568686027563   -0.29664553987440    0.02264591956038
O           2.12042491403945   -0.90362096649052   -0.71781016635300
O           1.22976080376577    1.07400813994567    0.40086844374327
O          -0.23011024874328   -0.30285398420863   -0.92699056975407
O           0.60054310817860   -1.12963521859955    1.16713940791244
O          -1.60434641759591   -2.47340004707143    1.64106285710839
H          -1.51908743562128   -2.88521761419553    2.50230990686292
H          -0.70845799415522   -2.12613275359958    1.41627035924124
O           0.42495388490172    0.94131494859443   -3.17892050422665
H           0.44563270560902    0.26209641405401   -3.85548261477450
H           0.09804853965009    0.50268944246257   -2.36423326739323
O          -0.55385999547319    1.30570187869961    2.28837828381705
H          -0.19080560721130    0.68102655129135    2.92170069484764
H           0.15127315227304    1.38280259500307    1.59897788157417
O           2.72393698766431    1.32568647917980   -1.82851218209087
H           2.35510416972406    1.70002187662783   -1.01343685202806
H           2.51136446916256   -0.13174570041462   -1.23073673723630
H           1.99672139304491    1.36978719317609   -2.48426412888484
N          -2.19741960190662   -0.04848015034214    0.72844903946544
H          -2.26858455349468   -1.00625484505698    1.13975999316739
H          -1.49862344407668   -0.14232574858162   -0.07787519749815
H          -3.09155692433560    0.32097481298918    0.42487220232960
H          -1.70059877567578    0.58020222641136    1.42582724061066
