    23
        -45.37886630  Gyration_radius:  2.31153742632 Dipole_moment: 5.422
 S          -1.17342369339287   -0.09139384456531   -0.34719460604685
O          -1.65567687248456    1.27228851891331   -0.50584065222362
O          -0.22308993434774   -0.15467244784501    0.77714185904445
O          -2.38269008304307   -0.98658203605957    0.01828405428762
O          -0.55715369156259   -0.61660272472309   -1.55774392763748
O           0.83218207051704   -2.55690309117481    0.94422771758799
H           0.76775806696975   -2.82887142729516    1.86119901526795
H           0.49362225697727   -1.63376637434649    0.90792897012415
O           1.82312908572728    0.42512362629532   -1.35621106819374
H           2.20011592016105   -0.09271652749625   -0.64010809522691
H           0.97167743978316   -0.02704660029394   -1.57572067078393
O           0.55568129378408    1.98198323996549    2.10272524985918
H           0.29379902035639    1.11145999012325    1.71885056703324
H          -0.18480465549242    2.25801721963305    2.64558416092558
O          -1.17632491455255   -3.11810155875498   -0.77995603551541
H          -0.42048215628803   -3.16977496928340   -0.15923971047451
H          -2.08092639810141   -1.91120403363246   -0.22349267093216
H          -0.86354522675000   -2.54228320491477   -1.49322066778932
N           0.57207482916191    2.57856260321748   -0.48112493153928
H          -0.41467871481214    2.17584100500740   -0.59282750496552
H           1.21442258671219    1.83308695633612   -0.88085066534705
H           0.68494158428250    3.47671455413700   -0.93790574512407
H           0.72339219638414    2.61684111672968    0.55549535767914
