    23
        -45.36753029  Gyration_radius:  2.36461355352 Dipole_moment: 6.784
 S          -1.04712561006480    0.49869105932940   -0.17390533449275
O          -1.20160587833346    1.40861964182405   -1.40395004112055
O          -2.36917262686549    0.28430213357444    0.41505866186473
O          -0.43901850163151   -0.76504970190151   -0.60211818122681
O          -0.17438335424036    1.16981384022171    0.79787363042716
O           2.19438755512937    0.13844134461833    0.20455165244272
H           1.37928517476617    0.61320585592971    0.47007389175634
H           1.91302843811701   -0.76710055398417    0.05064614861758
O          -0.43389642902442   -2.30119113685476    1.51655464564933
H          -0.38565343353774   -1.77441223022465    0.67840307381751
H          -0.96484422488623   -3.07148810071448    1.30603303348197
O           2.51707438971113    1.18911154080030   -2.23727380412557
H           2.48373806164214    2.13975724312627   -2.12071470648446
H           2.53464899380866    0.80270015920959   -1.33135596966781
O           0.21473773153926    0.13394752403970   -3.07368420612015
H           0.14124041683565   -0.60695062426476   -2.45477863649893
H          -0.68892616220983    0.99013092192122   -2.18035485031829
H           1.11500755511544    0.51272568588186   -2.93132664488636
N          -1.36861515852030   -0.12488878309102    2.68598654238268
H          -0.98819173043251   -1.09125481473318    2.52484065699704
H          -2.06968536492309    0.02897420343502    1.86782301195710
H          -1.72308862078975    0.04183567867355    3.62120165783706
H          -0.63894120122960    0.55007910319675    2.37041575771952
