    23
        -45.36498082  Gyration_radius:  2.31974707316 Dipole_moment: 6.798
 S          -0.57770430542569   -0.48047584443006    0.89897658646924
O          -1.29670176840837   -0.43796528521532   -0.45583388774034
O           0.11479397683876   -1.72697413932934    1.03572867922098
O           0.24782232555111    0.70300590678347    1.00397974718771
O          -1.70611633023545   -0.38698135324610    1.92933848361287
O           0.55009924235419    1.45982882027013   -1.58772703663766
H           0.52412934400171    1.29980472871791   -0.62835321172811
H          -0.32128176384212    1.22109275785351   -1.91360540661455
O           2.63420660501288   -0.83872132005531    0.51574153762297
H           2.46401700339642    0.06267386280283    0.80363397388241
H           1.86780725645430   -1.34672014914787    0.82498904944719
O           1.95095268299111   -0.83115756723960   -2.10783503771186
H           2.41266365697527   -0.90803208212608   -1.24802904985430
H           1.60011884895754    0.07931392434834   -2.12527895158124
O          -0.16417667759991   -2.24110668825839   -1.70667877367615
H           0.68483581136119   -1.75963000852673   -1.98829875144652
H           0.08404171528904   -2.78981851741340   -0.95387020621489
H          -0.89528846332657   -1.22811383244212   -1.06669534754812
N          -2.08982264444978    2.13945931328896    1.75773556609757
H          -1.12036555528216    2.26163361713110    1.48184546106314
H          -2.69185189680144    2.45064383257351    1.00718911664112
H          -1.99517798546198    0.60416002717978    1.94062677485408
H          -2.27700108835846    2.69407998647826    2.58242067467813
