    23
        -45.36498111  Gyration_radius:  2.32036463078 Dipole_moment: 6.807
 S           0.25532373248506   -0.28644033717897   -1.10521305353344
O           1.17882247787316   -1.36272272497017   -0.90277068547297
O          -1.12778725824092   -0.69045954741945   -0.57845244305095
O           0.62028972930233    0.96901801254385   -0.48583019654416
O           0.03691363304741   -0.05208661481836   -2.60225771604096
O           2.48249484829737   -0.36452561006784    1.26718284235635
H           2.30200562832639    0.55611188651347    1.05704965663945
H           2.24067969194940   -0.85418131089399    0.46536231424043
O           0.34479212465066   -1.13633674321798    2.74542618717888
H          -0.16305756565093   -0.30978713354134    2.63951156961957
H           1.24041189756233   -0.92764290018162    2.40987427205828
O          -0.96447408095968    1.03553220624254    1.72007878263121
H          -0.34569864546800    1.13595643238609    0.97594141518058
H          -1.74790174817950    0.62040947299765    1.35075052487887
O          -0.59526483147600   -2.62161084188957    0.86562683907986
H          -0.27099876289737   -2.13873172149705    1.69838586126136
H          -1.00339763343582   -1.56468315268236    0.03717272953632
H           0.20032801000600   -2.91539029393274    0.40720584718588
N          -1.00312914017440    2.28117577582326   -2.41874962882751
H          -0.42457436969310    0.86835174514480   -2.67950232732610
H          -1.99616799960272    2.31666220001338   -2.23117067096646
H          -0.49314684528354    2.43384916866620   -1.55419714418652
H          -0.76646289242271    3.00753203198269   -3.08142497590193
