    23
        -45.36777818  Gyration_radius:  2.32703119364 Dipole_moment: 1.031
 S           0.76814402179678    0.05916808287727    0.58777886987525
O           0.58743754638456   -1.19707550018890    1.28492217807935
O           2.19841965934314    0.59392093020134    0.86326726488595
O           0.65016061247215   -0.12340983830313   -0.87055685044539
O          -0.15516607213976    1.09635853426365    1.03960549649895
O          -1.79408487529279   -2.14466861599210    0.64847885764986
H          -2.10235815741636   -2.63087012596321    1.41560449666489
H          -0.87344391240810   -1.86673231342377    0.85799157608333
O          -0.55282671674379    3.12411866029976   -0.57867723358880
H          -1.18391645517701    3.70807034083280   -0.15295745191184
H          -0.25463720819265    2.48614850620950    0.11269283415822
O          -2.58100698750513    0.34536565548019    0.22748788160948
H          -2.50016209310020   -0.63399994798823    0.31237366026306
H          -1.83823095386797    0.68851664028421    0.76634239210210
O          -1.32164756222415    1.01759627021529   -1.82176522921320
H          -2.00570995453613    0.70501344558274   -1.07198415266809
H          -1.07848550959532    1.96291955354126   -1.54623302002271
H          -0.44712528930014    0.47749788100451   -1.53407354954602
N           3.01321385894578   -1.64860954409482   -0.16033681112973
H           2.58489717849247   -1.50720448419189   -1.06756339941923
H           2.31426949107089   -2.09091062009609    0.42805086604068
H           3.80556124746800   -2.27041491551233   -0.26275992173895
H           2.76669812151422   -0.15079859503183    0.52231124577427
