    23
        -45.37600611  Gyration_radius:  2.4655797569 Dipole_moment: 3.832
 S           0.50924260874185    1.23306445256295    0.30116083544093
O           1.61597277796983    2.30859214444145    0.03422698863956
O           1.15763322739434   -0.08028019804412    0.24638637267544
O          -0.07160482050926    1.49579171411922    1.60681714527296
O          -0.45215187584282    1.37302925107137   -0.78424675465672
O          -2.62222984672167   -1.81806272626304   -0.39349681046551
H          -2.01592397349986   -1.65126414733122    0.37340276294682
H          -3.43592257831966   -1.35539867397617   -0.18672827979377
O          -0.93532175544349   -1.09282371422316    1.50591443375113
H          -1.09011153259076   -0.22248133882493    1.89526016177806
H          -0.06357118632016   -0.97210987298156    1.08429675584903
O           1.45063706560469   -1.75996609299323   -1.72954419113747
H           1.59653261162887   -2.60541517542298   -1.30070503329190
H           1.50099880601811   -1.08503073201001   -1.00915176015892
O           2.18071967773458    2.34771479592049    2.62402423379068
H           2.04580362693252    3.18844009342677    3.06690085737777
H           1.29031050510038    1.95302738924306    2.50555851100319
H           2.08769431906490    2.38643043056562    0.88816055462993
N          -0.96362086845595   -0.74051369808144   -2.17728500817456
H          -0.05815831015690   -1.27481377701169   -2.15856974333988
H          -1.28013548275003   -0.57136520256717   -3.12522370557882
H          -1.68750460825395   -1.24041812330340   -1.59895133688111
H          -0.75928838732630    0.18385321168775   -1.66820696970722
