    23
        -45.38101023  Gyration_radius:  2.3573873332 Dipole_moment: 2.417
 S          -0.43904448399607   -0.33352972761684    1.22244273450885
O          -1.68268988216700   -0.62653385718490    0.52322757050043
O          -0.05847101097089    1.06330660201796    1.06933116044740
O          -0.66179987285388   -0.57114456834966    2.74754172278911
O           0.63614433498361   -1.22717264668401    0.78698104490965
O           1.98641453751433    1.67594230171403   -0.49981984088626
H           1.29433708909813    1.44229698706263    0.16022195055430
H           2.81563038480027    1.68465607405523   -0.02010665503499
O          -0.73343003689083    2.70666190690136   -0.96149901072055
H          -0.67771563823133    2.29714894065476   -0.07631213257363
H           0.17987488267502    2.91802264857867   -1.18396926206681
O           1.20250911624909   -0.61203596734534   -1.74212460278122
H           1.67308104949026    0.21871046539529   -1.53970466258265
H           1.07506341405467   -1.02281669586699   -0.86073647704511
O          -0.27138743599174   -3.15110132806601    2.32147141828665
H          -0.72328895568830   -1.54511759693722    2.81482695546993
H           0.14320040091146   -2.65523634960660    1.58614586941740
H           0.44329680949124   -3.57371929779912    2.80329216983997
N          -1.26261379009520    0.26207218438347   -1.86806587318767
H          -0.28298424822139   -0.13629917765733   -2.01788244417966
H          -1.90110254555197    0.03737112801461   -2.62253488850571
H          -1.58296929613358   -0.15024237114870   -0.93573269311864
H          -1.17205483247550    1.29876034548524   -1.70699409404044
