    23
        -45.37600618  Gyration_radius:  2.46533742349 Dipole_moment: 3.824
 S          -0.92918084943963    0.98595318103661   -0.18542379875182
O          -0.37450840371464    0.41610116920485    1.04581235776902
O          -2.08207269222108    0.23761735355588   -0.65665168818668
O          -1.39636220136355    2.44345020068627    0.14695613606389
O           0.10951564473293    1.12171266856804   -1.19767610494086
O           2.07545556123629    0.33931239381917    1.94233277188706
H           1.12571458094574    0.49196726734935    1.71505981120033
H           2.07745312482992   -0.39335289722667    2.56131551849489
O          -0.62577902170468   -1.98603446925923   -0.03071004937680
H          -1.34676137799550   -1.64023668255847   -0.57256528430770
H          -0.46815154126489   -1.24824930760097    0.58824365491727
O           1.64778024856683   -2.43484005482037   -1.29922868220620
H           1.38876316080946   -2.61901726418711   -2.20365460216498
H           0.80239018689171   -2.38146664855093   -0.78346468379582
O          -3.75112571893748    1.49670920345902    0.91260938662211
H          -2.25270271453636    2.32356019333814    0.60526214757672
H          -4.50824068934724    1.80554885558747    0.41001972661589
H          -3.30919810472543    0.81980881106817    0.35664246102728
N           2.39879169778872    0.04425342800096   -0.68011551250042
H           1.48782032430970    0.55487812493564   -0.93441652413424
H           3.19386031925628    0.46391076837411   -1.14822394494456
H           2.47810488337519    0.12003527567970    0.36563643099598
H           2.25843359249979   -0.96162159048433   -0.95775952787144
