    23
        -45.37089115  Gyration_radius:  2.38779251289 Dipole_moment: 4.944
 S          -0.58860164212976    0.29204662159107   -0.97041256055595
O           0.54454001624221    0.04093005584899   -1.86801225328367
O          -0.53714064430968   -0.65578498688224    0.14845408404383
O          -0.25693240022794    1.70253982534369   -0.31901708056699
O          -1.87148651390075    0.36893164671394   -1.60230569489261
O           1.06678618160039   -2.56951333528629   -0.71433109564719
H           0.34734863006224   -1.98709742791862   -0.38863896528697
H           1.23861877092123   -2.25952408966685   -1.60741952943411
O           2.49373100070705   -1.51587957019788    1.22704131309000
H           1.85976088684810   -1.56044436938471    1.94691905438467
H           2.09960479901276   -2.07439258409120    0.50711505520601
O          -2.66834837546295   -0.02171161356465    1.59969792977824
H          -1.85439643176874   -0.31171535748530    1.13607057756165
H          -3.35047491874430   -0.64375970234507    1.33923305245839
O          -2.71592619988802    2.23920812989092    0.14016031145792
H          -1.15623615758474    2.08314749192903   -0.07525461587880
H          -2.87097832147872    1.74645120192773   -0.68099555635566
H          -2.84842887369634    1.57871924258821    0.85312619280762
N           2.25110289992423    0.72567583489485   -0.12112729829339
H           1.63239030185164    1.39705638443766    0.34011527171891
H           2.41948358095205   -0.13333775671370    0.49718482758662
H           1.64451766595201    0.39905144506175   -0.97401838202183
H           3.12106574512851    1.15940291331259   -0.41358463787275
