    23
        -45.37036751  Gyration_radius:  2.3794065721 Dipole_moment: 6.241
 S           0.98551757510970   -0.33186295493813   -0.11012242830218
O           1.73761524570723   -1.32409209580851   -0.87231860290142
O           1.99101735507259    0.55376220630522    0.62614588274953
O           0.17199563049615    0.50663805078714   -0.99532567309494
O           0.12152835989875   -1.00159680268565    0.87865554506497
O          -0.98602516094785    0.50663684199861    2.74847856662199
H          -0.65815308566541   -0.08482698582639    2.03564943360548
H          -0.72841940012789    0.09447879463985    3.57485292209869
O          -0.30028026386468    3.07938301303776   -0.52412680202297
H          -0.22189492721558    2.12979697516330   -0.75652246343214
H           0.30897108397460    3.54477272727651   -1.09969703888646
O          -1.45146305915404   -1.01142634982790   -2.38162931919491
H          -1.27171143260350   -0.81011197325602   -3.30167429703835
H          -0.92745009120183   -0.35426501757011   -1.85721084503712
O           0.71983077455198    2.35496809167300    1.84100099622945
H           0.01399521160598    1.83259180276789    2.28247078117586
H           1.51029234792407    1.31135060372216    1.15618025315524
H           0.28168029209045    2.80515535333734    1.08558928017338
N          -0.28418405798616   -2.82701663377962   -0.87934436699457
H           0.71039358774083   -2.44228279178464   -1.05050899075177
H          -0.44669998799107   -2.35225438628503    0.04236582784792
H          -0.90039789979221   -2.34325875959857   -1.58266732610112
H          -0.37615807762202   -3.83653971934890   -0.86024133496451
