    23
        -45.37229969  Gyration_radius:  2.4145756386 Dipole_moment: 6.209
 S          -0.12962168044337   -0.36727753995982   -0.89521800527572
O          -1.02987409726706   -0.55145556658129   -2.00110138202220
O           0.18988039145382   -1.59622462653566   -0.17119813301454
O           1.05929032274856    0.40611269327554   -1.19883132744254
O          -0.90750927687911    0.53723861801297    0.19186575082871
O           2.46458300488463   -0.95102000287408    0.85046407065622
H           1.62410538496405   -1.34458943250781    0.48927499105038
H           2.96582544288774   -0.71103678601657    0.06602092998691
O          -3.31952356099139   -1.74459008908083   -1.47784637256584
H          -2.45865387940449   -1.38063598688124   -1.78719026695850
H          -3.99576646080779   -1.21208532771610   -1.89938204568558
O           2.02442411278728    2.72944692327556   -0.47895685259126
H           1.74765290832020    1.89265081256643   -0.92150957567863
H           1.51539044879395    3.42613549589415   -0.89648046402681
O          -2.24472103136507   -1.48004621050995    0.94526793142626
H          -1.42701579215820   -1.96262271170002    0.73946991506515
H          -1.56304403360453   -0.14011262745506    0.55934237967762
H          -2.83924850673319   -1.66830006084723    0.18596203513934
N           1.26482454575253    1.24217701418276    1.58007055367038
H           1.22887502761205    1.49508521033338    2.56180381566539
H           1.65625232063700    2.00353590243040    0.97134408432833
H           1.85423793666707    0.35483478782166    1.39903295897686
H           0.31963648215066    1.02277952086746    1.18779500878119
