    23
        -45.37600623  Gyration_radius:  2.46551512091 Dipole_moment: 3.824
 S           0.54855274696674   -1.16776360291194    0.45248976809217
O           0.70824865409377    0.20890226080416    0.92931129114717
O           0.82653812497087   -2.11520168170688    1.66822364762659
O          -0.83291080295945   -1.41550649584475    0.06238115004604
O           1.49818185520605   -1.49014853830151   -0.59888416095973
O          -1.03796248481694    1.90844122663057    1.86445925555279
H          -0.33187278882404    1.24436636470692    1.67114191318416
H          -0.62887800702559    2.76556176924480    1.73051597437595
O          -1.55491257849366    1.51012464180727   -2.37493925493989
H          -1.68826993586184    0.95586698132372   -3.14560992942857
H          -0.59647726585627    1.41556089534798   -2.13851217206108
O           0.91288523561299    0.98576824489600   -1.59028542913360
H           0.90564127751909    0.96224731904330   -0.61482538750791
H           1.24347659854254    0.10455039018320   -1.80774329686346
O           3.41169596682117   -2.08440563521257    1.08046369195914
H           3.79836346254953   -2.93307648245004    0.85367808913110
H           2.90912010762932   -1.79109888229968    0.29058735629313
H           1.80229543918510   -2.13846810911335    1.73827756509301
N          -2.41380234359765    0.62513756228321   -0.01430025138391
H          -2.22174278619420    1.04155201897379   -0.96198579941206
H          -1.82121151623869   -0.26967742773420    0.04514491935750
H          -2.04003571748422    1.25744689512273    0.73802069378488
H          -3.39692326175340    0.41982027520048    0.12239037604838
