    23
        -45.37600622  Gyration_radius:  2.46549873396 Dipole_moment: 3.824
 S          -0.65924803395281   -0.14652103664924    1.18878055770586
O          -1.62885981620707    0.93438780287534    1.13862372497140
O          -0.69012057786471   -0.96465421013833   -0.02688320890844
O           0.69469632398056    0.32003215096210    1.45542949094763
O          -1.03348607104365   -1.08229045399838    2.38761274559214
O          -0.80637075345333    1.26488502368610   -1.44413912822549
H          -1.21783990877492    1.69640995941869   -0.68417619766104
H          -0.80679135305804    0.32895814842997   -1.16797434347600
O           1.20384508470450   -2.27382912113165   -1.25625664585785
H           0.87894198389495   -2.37288654929461   -2.15322770044692
H           0.43900248529023   -1.92914891710347   -0.73366406062153
O           1.70461176221152    1.93387051159928   -1.92122920284998
H           1.78945808404398    2.82377235856737   -1.57509265661158
H           0.74012728474466    1.71192389283241   -1.85848877199060
O          -3.60031228796274   -0.57024709332392    1.96545178001829
H          -2.00751332490591   -1.16191262160365    2.33710975194134
H          -4.06415271750441   -0.13974881360102    2.68706273473907
H          -3.06731552378531    0.12662927998863    1.52633706196779
N           2.46213316370923   -0.10175161625445   -0.37969440326309
H           3.42062320073994   -0.16188484688023   -0.05559409670570
H           2.14582392056869   -0.99874285670797   -0.82792076556703
H           1.78707760055430    0.06019178023696    0.44096824243592
H           2.31566946407103    0.70255723808751   -1.04303491813033
