    23
        -45.36850444  Gyration_radius:  2.30653139469 Dipole_moment: 3.871
 S          -0.19854195620059    1.16026118545267    0.64394229360955
O           0.48080823637878    1.73103509201942    1.78950483599392
O          -1.04563829167099    2.26904766083291   -0.01896135480427
O           0.75589855966041    0.65898163110818   -0.35750571567741
O          -1.09207213857227    0.06273293566528    1.03947667650963
O          -0.16207694332127   -1.87316344167487   -0.81232701455706
H           0.04716499158089   -0.93968442860057   -0.62524597697016
H          -1.05102671251121   -1.98793875331526   -0.47025874549064
O           0.14856573727843    0.17522000046435   -2.93381967302486
H           0.57226319542763    0.49235219357753   -2.11361054794215
H           0.10094519187141   -0.78178977455950   -2.83006176501099
O           2.14284075008217   -1.37976492716590    0.76414884901390
H           1.65096016865126   -2.02781045566934    0.23942844253375
H           1.94099254430361   -0.52931706603075    0.32597672515105
O          -2.13209862895856    1.25250182891557   -2.14485484275722
H          -2.37035768222496    1.97601227498897   -2.72823734757973
H          -1.33765325647401    0.81834099965623   -2.55079198400566
H          -1.53574902324771    1.86386907637622   -0.79179771903875
N           0.62938838899683   -0.62687643437701    2.77292735422969
H           0.56650773661547   -1.01567443589068    3.70732736028681
H           1.35345164551437   -1.08857960173497    2.14645641237574
H          -0.27950024029788   -0.62050999951503    2.21195158193407
H           0.81492772710719    0.41075442946559    2.73633215521621
