    23
        -45.36850444  Gyration_radius:  2.30669362714 Dipole_moment: 3.869
 S          -0.26105232503859   -1.31528792377642    0.01269335417544
O          -1.36746388895558   -1.88548963686343   -0.90217278250385
O           0.57490909655267   -0.41314666125106   -0.79503794379512
O          -0.89636510785051   -0.53954474778670    1.08694478657484
O           0.50748860591036   -2.42407849611909    0.54146133477608
O          -0.38002229611078    1.35376456632889   -2.58574654155503
H           0.12333212255328    0.64133984292859   -2.14766684237816
H          -0.26289617797145    2.12204005195795   -2.01573885843262
O          -0.00865528582113    2.02952696205332    0.27830680174733
H          -0.79837971581865    1.99042470882979    0.82166109548714
H           0.08460816556021    1.12499370607388   -0.07289218946678
O           2.42660308514172    0.69181457066176    0.84503558628144
H           1.95773718193504    1.53877379808048    0.83392816287980
H           2.02630350309915    0.19847483751180    0.10184834877908
O          -2.63117641578097    0.12659203273881   -1.94489567566194
H          -1.86029195905257    0.67205324311903   -2.24921248531078
H          -3.07203553814860   -0.18228747781322   -2.73913946074798
H          -1.91400235401707   -1.11914595102944   -1.24242632336813
N           1.17808062144261   -0.91942784959852    2.49966925846704
H           1.84761539777463   -0.23396988935790    2.03955125003733
H           0.19726133405397   -0.59523737840491    2.22812870874904
H           1.19415166068379   -1.79699353521542    1.91477849698829
H           1.33425029986008   -1.06518878306869    3.49092190827985
