    23
        -45.36850445  Gyration_radius:  2.30662342528 Dipole_moment: 3.870
 S          -0.23728793376842    0.67835557194419    1.13277983555994
O           0.48793171965494    0.70191605771530    2.38701606606689
O          -1.22515704008634    1.86600054259101    1.12192927038692
O           0.66651023681726    0.82976906138473   -0.01848549228803
O          -1.00158092527068   -0.56690045471187    0.97597706504516
O          -0.11543944694537    1.57669425191260   -2.48239213853253
H           0.34888053835244    1.50669077681088   -1.62661397309735
H          -0.07601816989185    0.68879925277438   -2.85517097739055
O          -0.07650264654932   -1.25892425678551   -1.61381788952938
H          -0.92077212873171   -1.62281990078877   -1.33958490395438
H           0.07108118638848   -0.51244583329047   -1.00456261037083
O           2.30536232814977   -1.32667952059667   -0.07685752415507
H           1.99875701710037   -0.39902797318285   -0.03943415332400
H           1.82507799467330   -1.69407710658204   -0.83290043551712
O          -2.40127506115221    1.87976969479697   -1.19104105404388
H          -1.74418376647649    1.82932784093704    0.26697967347405
H          -2.74625298906570    2.76247498229033   -1.34065123272684
H          -1.61135672546159    1.78586710071931   -1.78399484945460
N           0.91085000680831   -1.80503177609282    2.09554147938405
H           0.95917811633092   -2.59859667974254    2.72493680002123
H           1.00732842802328   -0.86356084859024    2.56116563033340
H           1.61458038776383   -1.82501530893419    1.29915460953829
H          -0.03971112666470   -1.63258547458820    1.64002679457425
