    23
        -45.37600618  Gyration_radius:  2.46551774987 Dipole_moment: 3.826
 S           0.12185544107095   -0.94959862774729    0.97588485377639
O           0.81920494859533    0.32653409913235    0.79396665169013
O           1.06940811779815   -1.88254002793091    1.80333948450443
O          -1.11643538262988   -0.78871856306089    1.71872144604639
O          -0.06988684166496   -1.61356277124527   -0.30643743431543
O           2.34358580991114    1.18078799899126   -1.14497120687661
H           1.91037150124887    0.83405365387840   -0.32707632293710
H           2.31010558656385    2.13628323345304   -1.06870039115951
O          -1.50299881867614    1.43046009203323    0.17579450249286
H          -1.93743458127979    0.75348333793263    0.71070470236576
H          -0.56295561287857    1.28583019590227    0.39394859553211
O          -1.74544437570085    1.15471034432260   -2.44059052612335
H          -2.57477386633201    0.68927901020623   -2.56084818020495
H          -1.69644928126594    1.37135064499217   -1.47410304101225
O           0.07088368698674   -0.88115074583058    4.04603398756592
H           0.96804577173173   -1.57284425311522    2.72604045999181
H          -0.55199025719728   -0.68645129842111    3.31348688819278
H          -0.37586608064283   -1.50738248793078    4.61999813703382
N           0.51187641912567   -0.25874443117041   -2.42663773894386
H           0.29858037629896   -0.89109778264963   -1.58399937469843
H           0.76958596439959   -0.80886729740436   -3.23800913209617
H          -0.35706233173940    0.31221682977218   -2.59214095645169
H           1.29779380627695    0.36596885589197   -2.11440540437223
