    23
        -45.36850442  Gyration_radius:  2.30657949851 Dipole_moment: 3.870
 S           0.45127934009939    1.26285516221371    0.02850038260683
O           0.29564120904346    0.22080957275091   -0.99864974160318
O          -0.50295477361169    2.42532033445036   -0.32431428944411
O           0.05292991405658    0.70981107009362    1.33037864973896
O           1.80437602838827    1.78013661934327    0.06288280396114
O           1.86490402750123   -1.87405168305779   -0.30004749264935
H           1.48261320500901   -1.13643381069320   -0.81554081160113
H           1.09013076608053   -2.38859935517673   -0.03128271018972
O          -0.88019560994968   -1.80409765054313    0.40740357836359
H          -1.22603159434738   -1.49016953682151    1.24542417911666
H          -0.51804722057649   -1.00430097938720   -0.01612890140427
O          -2.06432686664492   -0.57423633465171   -2.01784697834744
H          -2.10564542003961   -1.39001633840364   -1.50631061136491
H          -1.14538162460826   -0.26229093160967   -1.91265538482170
O          -2.89460105405220    1.43785368786021   -0.51897409571771
H          -2.70808821977206    0.65406585786377   -1.09802394140175
H          -1.43878582864999    2.07051578286575   -0.31820092534479
H          -3.42058097390608    2.04256240370690   -1.04646793603726
N           2.42034300209918   -0.16199826783328    1.61122976884687
H           2.60994708168615    0.68874307974858    1.01729965945800
H           2.39401449908949   -0.99499253686097    0.95147186150509
H           3.03733543118011   -0.27102208486189    2.40850799615553
H           1.40112467192593    0.05953593900017    1.84134495018262
