    23
        -45.37371281  Gyration_radius:  2.43045554784 Dipole_moment: 4.640
 S          -0.57197238635272    0.48852926408857    0.75120148516980
O          -0.91725950843383    1.63355804734389   -0.08020227005493
O           0.88538317906580    0.39250609607413    0.94289160245169
O          -1.20919104855462    0.71107598493237    2.14537328096869
O          -1.10114526845910   -0.75342817028701    0.19736604112364
O           1.08814174728347    0.18305148001461   -3.11229822333411
H           1.45501086814740   -0.69947998915033   -3.03467745103393
H           0.11206178832186    0.08234703017559   -2.94706187959764
O          -1.41285569171114   -0.03444636285687   -2.33105958166335
H          -1.34786769392955   -0.44453119442533   -1.44211093937744
H          -1.78822636387376    0.83290223295542   -2.15591912802424
O          -0.65532692252679   -2.85295809957100    1.75317542106729
H          -1.51869335582704   -3.22351684584974    1.94473831742628
H          -0.80652840993173   -2.14772326757941    1.08698272014288
O           0.41562744464434   -0.92283703372160    3.28019913202543
H           0.09626613005538   -1.77472478911642    2.91237615258057
H           1.03567682420602   -0.58312047819076    2.61879921627129
H          -0.68713196685506    0.11418926432746    2.76088788820370
N           1.42986024052680    1.83300565895820   -1.08393098691132
H           2.06413949723896    2.62264614717828   -1.12588146572304
H           1.56394148530270    1.21019041151526   -0.23251670822642
H           0.42737705695811    2.09869528796770   -0.88898094162249
H           1.44271234465432    1.23406929522159   -1.95935169180891
