    23
        -45.37371327  Gyration_radius:  2.43081313219 Dipole_moment: 4.640
 S          -0.94904230332869   -0.41758409141907   -0.23770671544894
O          -2.31551795613870   -1.10133859742858    0.01572144558175
O          -0.81474356898438   -0.21840459980944   -1.67437303156369
O          -0.92985272701284    0.85160106169324    0.48204891158406
O           0.09729511507094   -1.32009952960096    0.27259777259691
O           0.29570478025853    2.37429911745631   -1.30297731644437
H          -0.15674967776474    1.93974901149125   -0.54851026292268
H          -0.18068941015684    2.05038448796917   -2.07243225955847
O           2.73032482465850    1.38330328426081   -1.24411945852894
H           1.86565869120748    1.87111838122300   -1.31295932602407
H           3.05125246480158    1.55159630784026   -0.35631097777901
O          -1.33999329376124    0.57272257653727    3.08614317448400
H          -2.10211705205727    1.11712861857517    3.29107807226404
H          -1.11717463373978    0.76299130322207    2.14896012100665
O          -1.57998698781245   -1.98595384472930    2.31199243057724
H          -1.53991598719281   -1.14807544166044    2.82127644686623
H          -2.22528684465037   -1.51882229558966    0.92419216379926
H          -0.71688156371633   -2.05524869136777    1.87881302451091
N           1.63341546706584   -0.96567012292834   -1.72630135174210
H           2.09341711684805   -1.67669245208160   -2.28348540165171
H           0.69885103063488   -0.65927127881946   -2.10930707795260
H           1.27778329175286   -1.31065378914716   -0.78557065664337
H           2.22424922400234   -0.09707942569538   -1.57876974701988
