    23
        -45.36667911  Gyration_radius:  2.39856481915 Dipole_moment: 5.458
 S          -0.67525459522663    0.67980205218004   -0.06544553613620
O          -0.80771061965384    0.26546409242176   -1.46121128019136
O          -0.56459777274646    2.12616933625843    0.05990148838309
O          -1.67608504519916    0.07710422529605    0.79044026472787
O           0.73515021779968    0.14984803475950    0.41375112193859
O          -1.94656188501877   -2.42755364700071   -0.19240764561636
H          -1.96039909627921   -1.46077095878152   -0.07347143075033
H          -2.57923296109247   -2.77840530246786    0.43896222151824
O          -0.99148713777572   -1.33366209728850    2.96083034968663
H          -1.35430346928378   -0.78336674762457    2.23633886204605
H          -0.69402630667821   -0.72106956511222    3.63465997414058
O           2.81859796606427    1.16375006412136   -1.00368820245078
H           3.45872620876387    1.52916861821283   -0.39082059260357
H           2.15845909174560    0.68965228085514   -0.45954059827945
O           0.49074008906334   -2.31542242333697    0.92028808298451
H           0.11041355512208   -2.20104097425054    1.81362118478893
H          -0.27767384481099   -2.56159151415442    0.36020288882382
H           0.68776586628432   -0.86714014367438    0.57736746284655
N           0.64094512949523    2.19345184961797   -2.16549873738958
H           0.06600866111662    1.28076981806401   -2.20062007908683
H           0.51840067436874    2.80514847056096   -2.96421504309264
H           0.20941728663379    2.54267903737723   -1.25536503929983
H           1.63270796727457    1.94701549396850   -1.97407971697941
