    23
        -45.37949587  Gyration_radius:  2.38786143943 Dipole_moment: 4.344
 S          -0.13578094907550   -0.67661132810262   -0.64092163259463
O          -0.43467562056240   -1.17874408276255   -2.07292391341163
O          -1.38359284961960   -0.68185644107071    0.12303542377686
O           0.85004693655156   -1.55527102889394   -0.04798562857587
O           0.37844219100301    0.70181728958112   -0.75824024439870
O          -3.25889458857918    0.82982888963895   -0.96693423738101
H          -2.60669832379661    0.29146121969797   -0.46632661902408
H          -4.02396506102415    0.26615923345809   -1.09382814349836
O          -0.28935462148439   -0.76780172379826    2.50517519106270
H           0.17049999400827   -1.61048520825672    2.45173588604495
H          -0.85042199029996   -0.74575483880846    1.69472448527246
O           3.21980328942735   -0.85045945976989    0.84234157421440
H           2.39132706736781   -1.26052118500009    0.49655705528221
H           3.81693454777251   -0.80152893516713    0.09415035291136
O          -1.34168862059179    1.10185495455550   -2.81917159733564
H          -0.65407162639268    1.43820316389462   -2.22637991738453
H          -0.83559670759130   -0.38267486914858   -2.53544743295646
H          -2.17123719372503    1.14822507287462   -2.29646982376326
N           1.44726782373298    0.98453403125279    1.56948674888522
H           2.33368917062749    0.44002413387432    1.44706823582403
H           1.01302312599463    1.03429513718391    0.58982743497719
H           0.77406000500834    0.37786790372649    2.12411024359737
H           1.59088400126000    1.89743807087386    1.98641654843770
