    23
        -45.37702309  Gyration_radius:  2.38052899738 Dipole_moment: 5.249
 S           0.19197447025963    0.36492347832419    0.83761369326100
O          -0.79801851410407    0.49039775373809   -0.25773217371509
O          -0.17046804879144    1.14906356572403    1.98217245332612
O           0.17683124379540   -1.15735482263411    1.22929693133872
O           1.52918651219694    0.60624746678639    0.31007673033321
O          -3.08373509953696    0.34589596646290    1.10764936226888
H          -2.29566490760699    0.40411014325993    0.53094714989741
H          -3.24015865889154    1.23985713953799    1.41900138517046
O           1.93339561002173    1.80864795413252   -2.02840433107934
H           1.93842133521632    1.45753195451036   -1.11059166704572
H           1.62924299977787    2.71509605949140   -1.96282556009276
O           2.00887283040647   -1.76839748642423   -0.75486367081159
H           1.54702489175977   -2.34523195535662   -0.13945979792031
H           2.06957432111156   -0.91155011761313   -0.27886324949934
O          -1.61857057873943   -0.83953972623736    3.02796826445416
H          -1.16282280093553    0.00460834667179    3.17337217003723
H          -2.37021904898055   -0.60707138861135    2.44321117756882
H          -0.51397550657131   -1.21591425064182    1.95353891638147
N           0.43155605454339   -0.36698870999120   -2.34037470698396
H           1.02323739065524    0.46942024221401   -2.54822254694170
H          -0.07965527971669   -0.70337800051606   -3.14847146421564
H           1.06334791422285   -1.09653317292164   -1.90914237590190
H          -0.20937712009260   -0.04384041990348   -1.53589669982996
