    23
        -45.37949588  Gyration_radius:  2.38775290898 Dipole_moment: 4.345
 S          -0.04927929959956    0.92417825145601    0.17723014418307
O          -1.10399785104405    1.14094231441196   -0.79024730712962
O           0.00893418436533    2.15252482474632    1.11533813183514
O          -0.32923492171387   -0.25623739902571    1.01775571850593
O           1.25170327072788    0.77644792542361   -0.47570832643058
O           0.41293529538652   -0.62549835838031   -2.52752037650767
H          -0.18723521270786    0.00687942192752   -2.93286807399092
H           0.88196568929299   -0.10467660384093   -1.83406017494277
O          -3.21221894982434   -0.38489731625922   -1.15394295547541
H          -2.50675691170038    0.30191522690035   -1.08537222454377
H          -3.86689256192869   -0.15110512874149   -0.49401230774603
O           3.23318096121035    0.47330186116317    1.24822858174737
H           3.87414427648270    1.15808760285414    1.04995402196673
H           2.55446974400814    0.52520372935842    0.53942369079533
O           1.20919442754761    0.84163886448664    2.96530909534879
H           2.08417268808634    0.69368163961229    2.54573417663448
H           0.48937128076250    1.81818601420268    1.93121683307008
H           0.65439451042070    0.11435762689887    2.64811984893533
N          -1.08576781871039   -1.92897848177289   -0.79062067842214
H          -0.75371344469846   -1.36764607966318    0.06104456856001
H          -0.47242056342121   -1.58458349492290   -1.58690656471065
H          -1.02680275376231   -2.93160034136121   -0.65235911712055
H          -2.06014603943327   -1.59212209945403   -0.97573669449708
