    23
        -45.36398837  Gyration_radius:  2.47815753997 Dipole_moment: 4.115
 S          -0.14472316309536    0.89482310211934   -0.36735230662432
O           0.58055592954930    2.08671130660261   -0.81374731911707
O           0.75732081011308   -0.05627430652334    0.28705543427814
O          -1.22572618908823    1.32407150341542    0.65050274174845
O          -0.84087458378699    0.26986625834701   -1.49227069346242
O          -1.90527451795372   -1.70415773016230    2.80741993774025
H          -1.76550019622951   -1.79836054796810    1.83523239709724
H          -1.39949998432063   -2.41350719886047    3.20806439261454
O          -1.17006065518764   -1.87549597033536    0.25526490905452
H          -0.33288065384847   -1.38532510489653    0.36465911891092
H          -1.60284667087186   -1.40340785402406   -0.46493144283952
O           2.68017916070960   -0.58977219958507   -1.42405293017446
H           3.49073892791237   -0.29031145273940   -1.00806275910421
H           1.97947270454960   -0.49174859213363   -0.73153627072158
O          -0.91220979065131    0.72673344176453    3.13107689031191
H          -0.97989363952068    1.11624929626121    1.60496680790784
H          -1.59782472903250    1.24066396499371    3.56343784153030
H          -1.26049278302962   -0.20064927763220    3.07695333842621
N           1.15572784488145    0.91516561109232   -2.96725487504528
H           0.23454846821673    0.44783011845107   -2.76347606804019
H           1.91106196488984    0.27027437649221   -2.62270504180832
H           1.27204122177092    1.23702171066513   -3.92135944958642
H           1.07616051402505    1.67959955465183   -2.20788466309665
