    23
        -45.37611809  Gyration_radius:  2.46315921368 Dipole_moment: 3.234
 S           1.05506612488069   -0.27774602366926    0.77328653628354
O          -0.16254810882720   -1.06404752757276    0.96739822879205
O           2.24741594073830   -1.10225462485640    1.36136097425462
O           1.34071432469374   -0.10870421361631   -0.64561800870296
O           0.98847112054933    0.98702407825730    1.49369765107337
O          -2.49817460788787    1.37962562486967   -1.06493579270359
H          -2.98126985645011    1.70853543620451   -0.30515976281156
H          -1.58765699948791    1.77187066285311   -0.99443510199737
O          -0.02120494754322    2.18656220110169   -0.67513671777478
H           0.55187757605755    1.48740065060424   -1.03007705853357
H           0.19243914302101    2.14194398407867    0.27111051985348
O           0.35651134369731   -1.35612127458399   -2.73194990916445
H           0.86671989078467   -0.99346238688578   -1.96970679411649
H           0.53961832237822   -0.77194826037589   -3.47018160573355
O           1.71607707084541   -0.10240012416274    3.75793161901805
H           2.42060056393129    0.41889264820247    4.14959616096821
H           1.29526433652478    0.46845990427085    3.08072711049458
H           2.15479664033590   -0.99429737656759    2.32921495724001
N          -1.72459784777902   -1.17082388033378   -1.07285013264199
H          -1.06146191173845   -1.31333609937438   -1.87203907712993
H          -2.42860340948922   -1.89925789672333   -1.03740755679782
H          -1.10835658177558   -1.18587552395346   -0.18673729903422
H          -2.15169811745972   -0.21003995776834   -1.12808893083598
