    23
        -45.37702313  Gyration_radius:  2.3803834788 Dipole_moment: 5.246
 S           0.29771911659157    0.33820255621637    0.81677636720295
O          -0.47072609866823   -0.93000780155396    1.33859167207179
O           1.34803193575788    0.66370808898104    1.73732026109668
O           0.82482337357781   -0.05081628912471   -0.51231289823615
O          -0.72850599166752    1.35970126271726    0.64898717129368
O          -2.77362151314701   -0.18710922488823   -0.00639695868414
H          -2.58662453359904   -0.97314358596812    0.51511715083478
H          -2.18941848266646    0.50058752829300    0.38105916127027
O          -0.98036958725532    2.75668218119218   -1.60094089236529
H          -0.20019930495980    3.30242899732843   -1.71042906161134
H          -0.93602281434343    2.40154664482872   -0.68570221946614
O           2.86143212856595   -1.61836866629833    0.19718159010764
H           3.58784919426199   -1.01472651408162    0.36605008007998
H           2.13473235294872   -1.06260788329867   -0.14943815364723
O           1.57990433779373   -1.87250044940241    2.54931227565477
H           1.76476854940133   -0.93686860882482    2.72776351458671
H           0.22179877329983   -1.44041695141832    1.85355575709796
H           2.12863480873643   -2.07831409043756    1.76352555351165
N          -1.18901524653199    0.14856584191137   -2.09012821431382
H          -1.21768980490929   -0.35596396848352   -2.96884789304843
H          -1.97816733548032   -0.10477686562991   -1.43408586066165
H          -0.28898924575527   -0.03246652947508   -1.52494910017075
H          -1.21034462195076    1.18666434741942   -2.21200931260404
