    23
        -45.37611817  Gyration_radius:  2.46319682892 Dipole_moment: 3.232
 S           1.25500554310867    0.02198661459380   -0.46125883277239
O           0.47344302785934   -1.15539531779100   -0.81661780177956
O           1.01795539282800    1.15085507520665   -1.35142256350501
O           1.03103528776674    0.39116810733994    0.93590382541991
O           2.75625314918560   -0.39415831721465   -0.60388575394226
O          -1.53181953368513    0.39413334667090   -1.65341242270396
H          -0.80053509369949    1.02784025540613   -1.73438497888884
H          -1.04679873787660   -0.43534718860196   -1.51175695677994
O          -2.86817506609041    0.85647075299968    0.56888463155942
H          -2.86170669572455    1.81067656457516    0.66006971949559
H          -2.46988467018714    0.66917214925228   -0.32225766235585
O          -0.77243467166572   -2.88584150701179    0.71005652351567
H          -1.40892639102973   -3.30574055887966    0.12838154307323
H          -0.17859070112651   -2.36028616965923    0.12358558273383
O           3.39823704078650    2.15529807733141   -0.94045615550769
H           3.23904784060898    0.45664731336713   -0.59624700295201
H           3.80403259495519    2.36749291788619   -1.78414038155037
H           2.43927693867132    2.04866092500056   -1.11528655650624
N          -1.11382408721750   -0.56636188428485    1.98321306212442
H          -1.15100998039336   -0.52894815347317    2.99548330937884
H          -1.89297450798679   -0.01570356457098    1.53784490551860
H          -0.18900848518898   -0.14853140453517    1.61525259404239
H          -1.12859817389746   -1.55408803360899    1.63245137238201
