    23
        -45.37611820  Gyration_radius:  2.463253456 Dipole_moment: 3.234
 S          -0.22288721798508   -0.32898846130767    1.27707565162596
O          -0.59659521606114   -1.70242224152646    0.96541189943555
O          -1.13334778112841    0.62542761083325    0.64565001110476
O          -0.34093542606064   -0.13937784551056    2.82543746300935
O           1.16118368400295   -0.02585289165620    0.93683477852034
O           2.21019928400001    2.12747567211516   -0.13118398429285
H           1.87794830495339    1.38264751300163    0.42347321346691
H           3.05391111267757    1.83572570839316   -0.48164354855279
O           1.03925761828872   -1.68089684504070   -1.15322393951234
H           1.46053160727699   -1.08314558925029   -0.51401665688848
H           0.32199306562802   -2.05480194561545   -0.61605717149404
O           0.02978042609486   -0.14870295736059   -3.04326971297554
H           0.48392343285912   -0.76954022033782   -2.41387747229224
H          -0.77670112535486   -0.59360760299262   -3.30883951342404
O          -2.42442032510642   -1.77781071791829    2.83540152574551
H          -1.18882726999244   -0.57128754259961    3.05236450891490
H          -1.92054275976683   -1.91783475018381    2.00590858592988
H          -2.31459438230077   -2.57713835619024    3.35551029562261
N          -0.14971152477475    1.90633583776870   -1.35584334447164
H           0.81551322409095    2.15185665655870   -1.02894171998919
H          -0.61945442972777    1.42116238263380   -0.51374361607926
H          -0.66980343673581    2.73002785064729   -1.63605727018455
H          -0.09642087487692    1.19074874553956   -2.12636999321720
