    23
        -45.37611823  Gyration_radius:  2.46338374943 Dipole_moment: 3.222
 S          -1.18848962085247    0.58375448557523    0.18983206906924
O          -0.10098996318790    0.93099373791506    1.10375586434933
O          -1.84477272305179   -0.65270175134611    0.59377868913556
O          -2.24705165327105    1.73342967670989    0.25822054596258
O          -0.71502016311169    0.55133515659181   -1.18806611939218
O           1.50802203556805    1.46233178487112   -2.24018090456153
H           1.59680037947708    0.98371846108959   -3.06653692750358
H           0.59840058974825    1.26664516869799   -1.91311940614382
O           2.22264702341936   -2.08274283828104    0.06944317695785
H           1.34869270827489   -2.16235557852623   -0.39729082269709
H           2.12145167010806   -2.56409817975968    0.89225933471612
O          -0.19344611813595   -2.05636446326414   -0.97944047890331
H          -0.85501290996551   -1.97814054252336   -0.27328972579881
H          -0.28983386428376   -1.19739113514588   -1.42292384225363
O          -3.34716131738720    0.55456664337800    2.36202526343092
H          -2.71319172162215    1.57594786039629    1.10368380032829
H          -4.25904901181609    0.27737132146691    2.24751936019583
H          -2.79751442200564   -0.10375239071973    1.88646272423035
N           2.26606227196779    0.58043661160327    0.16085140838203
H           2.18823604818459    0.94678152041711   -0.81833296481728
H           3.00623855429108    1.04412959332708    0.67523339346650
H           1.30432985302483    0.77102322639752    0.61232498042399
H           2.39065233456654   -0.46491838897156    0.14379058135163
