    23
        -45.37611804  Gyration_radius:  2.46265665921 Dipole_moment: 3.221
 S          -0.88122434017919   -0.87086028517105    0.50350308046098
O           0.42630052701504   -1.38265138402035    0.09499388400987
O          -1.87182117581246   -2.08097787486828    0.53684326224502
O          -0.83063255736033   -0.29783456338352    1.84210939941841
O          -1.40708201963856    0.05561800399550   -0.49095405099711
O          -0.32071964673654    2.11795011067068    0.80530525828019
H          -0.86323296858290    1.66809328516586    0.13659878597670
H          -0.37141101577077    1.48829146838707    1.54244902441451
O           2.13579242988376    2.16174996767930   -0.14417830895431
H           1.21098592822729    2.26474647572242    0.20517716309058
H           2.69245752156965    2.04599691766344    0.62767178648596
O          -0.64691116827775    0.51123185676217   -2.95945734098570
H          -1.06408168643992    0.24426003042052   -2.10661547833317
H          -1.00085921343596    1.37914811644077   -3.16244598820863
O          -1.06672747181327   -2.63055167406971    3.00173617257839
H          -1.63575386587486   -2.55675220666051    1.35834169463223
H          -0.82227017820150   -1.70440279163436    2.79191302237975
H          -1.74874513245393   -2.58321300555822    3.67560197730683
N           1.64166294622590    0.03564187378158   -1.67334485581490
H           0.87689970097877    0.28265959842534   -2.34659158586198
H           2.41409255519308   -0.42701858217326   -2.13896155920812
H           1.95200702381731    0.89619165037506   -1.15197855583731
H           1.18127379813632   -0.61731699998853   -0.94771678568429
