    23
        -45.38152958  Gyration_radius:  2.23402474526 Dipole_moment: 5.499
 S          -0.35475808482927   -0.56198191690889    1.34413123912081
O          -0.34456520083290    0.20200227435140    2.69398497831999
O          -0.83835010693964   -1.89846781370470    1.56575237912820
O          -1.18518399817350    0.19177664364452    0.40040091255542
O           1.04275255299917   -0.57189219830283    0.84868819398281
O          -0.08237001286158    1.02577037163231   -1.87514711271535
H          -0.65112084081813    0.82105521597430   -1.10107745908504
H           0.63416691250624    1.56199337890557   -1.50803879024744
O           1.76012855261031    1.81289008160071    0.08805834698856
H           1.54999189199503    0.89784789298820    0.40737146329060
H           2.64736651318805    2.00746544009504    0.39317459089436
O          -1.73741947078326   -2.41279657545253   -0.82683822699092
H          -2.35765940609462   -1.68528678502980   -0.92765074573381
H          -1.48864203230858   -2.39146902072601    0.12909117827532
O          -0.46704993133260    2.52279263952574    1.52690703646591
H           0.37074030601299    2.55425605486671    1.03072337751595
H          -1.07484541714485    2.01986618350206    0.96380760240179
H          -0.36186207095674    1.16551040105488    2.45280274942887
N           0.61338052520899   -1.47795736926323   -1.55393532732990
H           1.27080746391434   -2.02594957685963   -2.09742449328430
H          -0.31988340346509   -1.97173032805706   -1.41809080932602
H           0.95944650007823   -1.26743127962339   -0.57405398795362
H           0.41492875820269   -0.51826370437087   -1.96263709548457
