    23
        -45.36470174  Gyration_radius:  2.37260612467 Dipole_moment: 5.032
 S           0.41430621355831    0.10634691599250    0.77307945206307
O          -0.36089428195538    0.26507994349937    2.00535778782322
O           1.27092728946399    1.25911541520479    0.53965435859542
O           1.34356057502310   -1.11908480003778    0.91260264222314
O          -0.48134543055106   -0.11549206449487   -0.37135405667183
O          -0.26777208403576   -2.27740118228797   -2.02215582804900
H          -0.62523296913331   -1.51200576888860   -1.54089232647644
H           0.56243015305571   -1.94615977426965   -2.38934369617289
O           1.78464739257906   -0.29190113423507   -1.94506726591647
H           2.53522554149659    0.08831111374177   -1.48544283616665
H           1.01645943662636   -0.03202721874891   -1.41859962435221
O          -2.11398166135966    1.96010211165002   -0.44160372985566
H          -3.00109523209818    1.60048516622112   -0.38060272713764
H          -1.51696850684527    1.17898150401824   -0.52720646018849
O           0.29687473055017   -3.38840718408558    0.29938622389003
H           1.02826580447551   -3.99878154477616    0.18326012372626
H           0.86832415729603   -1.99593486100527    0.76969898012046
H           0.00762051596307   -3.11842606576221   -0.61203019815744
N          -0.56913920973462    2.73439541640031    1.55695153144603
H          -0.64461260638332    1.76806949209605    2.03645231083763
H          -0.59840518757941    3.54350052090892    2.16714505143373
H           0.35425699816766    2.56839938147192    1.08366607776179
H          -1.30345165858493    2.72283459739385    0.80704420922250
