    23
        -45.36470201  Gyration_radius:  2.3725896527 Dipole_moment: 5.032
 S          -0.21465844806627    0.84637173993388   -0.13727494697092
O          -0.78220805884523    1.26103946716736   -1.42200297619033
O           0.11872349867598   -0.58520308290489   -0.16195342880970
O           1.07942315881787    1.64622428118818    0.12753077021245
O          -1.12432596134661    1.14353679935702    0.95880725218567
O           2.61042892466466   -1.53785306212744    0.41146146461134
H           2.51443141482209   -1.29892213568527    1.34283800570807
H           1.70616411424680   -1.46194477330095    0.06263219457570
O           1.02665227584787   -0.28559576014665    2.43207960892425
H           0.67788287623027    0.52252615999314    2.81221787142392
H           0.52865523655453   -0.40664738217262    1.61221190250120
O          -2.12109891634754   -1.85228278545571   -0.75812328006411
H          -1.25478373858971   -1.47162381061585   -0.47790860903238
H          -1.93612774791672   -2.35361773272900   -1.55462567994304
O           3.22704634776773    0.66534675176638   -0.89549850028437
H           3.13298133345906   -0.23151236917109   -0.47822471428817
H           1.87586842084145    1.29186710948869   -0.37776114899930
H           3.95825197660481    1.09787076811664   -0.44922097928176
N          -3.07786627729113    0.60641465423702   -0.61975455782034
H          -2.27670766262525    0.99046381349769   -1.23609478906987
H          -4.00100777272730    0.98890395891616   -0.79105222984039
H          -3.01123121643877   -0.43740860354757   -0.70861567597828
H          -2.65649376834163    0.86204599419602    0.30833244642763
