    23
        -45.36829373  Gyration_radius:  2.45800615802 Dipole_moment: 6.310
 S           1.01827642979069    0.21467412018806    0.13359758699525
O          -0.20017635022202    0.84070459640580    0.92252586803043
O           1.52170212097144   -0.90655293289459    0.89215774044023
O           0.41452886991626   -0.20546115721001   -1.15559606034060
O           1.95794610867632    1.29164921058308   -0.07582378916626
O          -1.81664249188616   -2.73306883792071    1.19296621171323
H          -1.09615246246831   -2.83441763928834    0.52360665931751
H          -1.96073137348826   -3.60645013793026    1.56048392297966
O           0.27936564403961   -2.84393915975586   -0.44358042899823
H           0.12116244764263   -2.22813842136940   -1.16893002025607
H           0.89684894343749   -2.34398168977104    0.12344813518830
O           1.25557108483550    3.37743225748332   -1.42800060622698
H           1.60825639774548    2.66992165770435   -0.82187177058029
H           1.89462566003589    3.44277450593727   -2.14014714411476
O          -0.47595844656223   -0.96149406805045    2.69794138098048
H          -1.08235261809418   -1.59529911167975    2.24939379793935
H           0.41889372081126   -1.22922780758088    2.43930588989016
H          -0.39362694990677    0.22101014758900    1.69801283187129
N          -0.91283172830423    1.90794188934595   -1.46692315586370
H          -1.64565273615385    1.97334825343523   -2.16549585697415
H          -1.27851294980662    1.98419532654051   -0.51660443813494
H          -0.37792618406671    0.93069590254997   -1.46193487137805
H          -0.14661313693451    2.63368310568354   -1.58853188331343
