    23
        -45.36829375  Gyration_radius:  2.45799532099 Dipole_moment: 6.310
 S           0.86777352183089    0.34430756945221   -0.47891559947717
O           1.81441033392671   -0.07344817073266   -1.48683354225697
O           0.75488786809822   -0.85596493519983    0.54360148636817
O           1.23137684984426    1.53331014592315    0.25601644045223
O          -0.49719938145757    0.43581766654452   -1.05471734661968
O          -1.60908650257011    1.33239415704217    2.79794151345632
H          -1.55909738596016    1.82099970460632    1.93993285432241
H          -1.83065030125887    1.98687002681010    3.46219733461213
O          -1.20213199510288    2.58512861975205    0.48509633093924
H          -1.50799125343443    2.00585264592027   -0.22290037147654
H          -0.23457703788281    2.46001600674973    0.45339916728597
O           1.33475543401270   -2.16522276318299   -2.92434677232820
H           1.66587034079228   -1.40149028803263   -2.37712515171182
H           1.36810940422547   -1.85946498626797   -3.83277100676756
O           0.92942557986086    0.46658382858331    2.71078596718211
H          -0.01152050965154    0.70660741256549    2.87693130194642
H           0.84709068122642   -0.45908828789210    1.46922591816457
H           1.28311634436542    1.17235901448145    2.14854434374872
N          -0.76454245454341   -2.04597536568705   -1.36191529812168
H          -1.66766663228030   -2.45832647063768   -1.57089176349243
H          -0.02314319552902   -2.25884312113554   -2.09242830484899
H          -0.77973565572958   -0.93430015973699   -1.29064061421023
H          -0.40947407278541   -2.33812225994574   -0.45018688718639
