    23
        -45.36829372  Gyration_radius:  2.45803652096 Dipole_moment: 6.308
 S          -0.96115788362423    0.40330364898748   -0.11856844435878
O           0.28985825177300    0.62796951015049   -1.05851119248342
O          -0.35122707450472    0.06612780160363    1.19190417719221
O          -1.64340259730439    1.67447682295161   -0.04612107432485
O          -1.74107456373600   -0.68763344672924   -0.65499253072806
O          -0.42725372099379    3.74451752049097    0.90743812404923
H          -0.97909911354760    4.05046611245255    1.62973273622219
H          -0.96366566813212    3.04447373896534    0.44435334702346
O          -0.81103250044523   -2.61763010672819    0.92342413923927
H          -1.35893428549134   -2.09039655307789    0.31140230559577
H          -0.47279904223329   -1.94627319952000    1.52777657821904
O           1.12338737191008   -3.20572065953761   -0.80745801299145
H           0.45425519139986   -3.04830548818376   -0.09693969059236
H           1.05860490612098   -4.13560902848996   -1.03050962801558
O           0.04998164550114   -1.44104763330412   -2.52063776973024
H           0.29008656444536   -0.12961952146149   -1.72851391789980
H           0.55029384269287   -2.11313987949907   -2.00240180041111
H          -0.85635193310386   -1.47000013369209   -2.17854135549216
N           1.39614171832055    1.87158683137627    1.08242806381291
H           0.80497692783889    2.75340296218682    1.11968105397856
H           0.67665080162307    1.04116636129646    1.26638352146349
H           1.68903541980770    1.72258946212766    0.11561766097060
H           2.18272576169458    1.88529486763634    1.72305370925321
