    23
        -45.36829364  Gyration_radius:  2.45821308508 Dipole_moment: 6.306
 S           0.37762593679826   -0.06928063320987   -0.97582398239773
O           0.48504943157467    1.30278616152214   -1.41390920181685
O           0.91760726597750   -1.05322429779344   -1.88509220157165
O           1.18792483314790   -0.22439206916415    0.37266371679691
O          -1.00949018858293   -0.42744826012405   -0.58745694501074
O           0.79877568019125   -3.56579670673049   -1.29634404374534
H           0.33378825464295   -3.97473725080377   -2.02871365848447
H           0.97897417749395   -2.63053981080075   -1.58786810669010
O          -0.73725883494170    2.87275362865072    1.84355300077293
H          -1.24096296320060    2.62932514948171    1.02848642764812
H          -0.91931627317331    3.80070156088176    1.99983877472495
O          -1.84632009227905    2.17527170830438   -0.47325980025142
H          -1.01535619803337    2.08003329449194   -0.97645427457511
H          -2.14561285129081    1.26173404876127   -0.39457814686008
O           1.66123362969925    2.23508453759656    0.82286438215344
H           1.47317797184774    0.70572785922883    0.64924152005063
H           1.43635036470904    2.35878960810406   -0.11172199052533
H           0.85912903783077    2.50615352929157    1.32655584998113
N          -0.33580293911724   -2.43126483870073    0.77472961535589
H          -0.98960944681050   -2.88863327395375    1.40135350680675
H          -0.77514424500471   -1.58237278686953    0.20244669915777
H           0.44286732735979   -2.00166380381686    1.27657170985296
H           0.06237013117470   -3.07900733436740    0.03291714862436
