    23
        -45.36829374  Gyration_radius:  2.45797503289 Dipole_moment: 6.309
 S          -0.90169275858223   -0.26145685291038   -0.46849303788942
O          -0.76675798810966    0.03233330709873    0.98012477616639
O          -2.09162702462287    0.36041641849070   -1.00136808639559
O           0.32172667977062    0.50402388074744   -1.11365786981642
O          -0.75790145772148   -1.66953685196489   -0.75590149803465
O           2.77877584084079   -2.01540721136263    0.63781518415095
H           1.90619788761665   -2.17194601997639    1.07549214776924
H           3.27698104891409   -2.82736088668852    0.74367371987909
O          -2.54334091968906    2.86783498460230   -0.57560518560257
H          -2.43332996325385    1.92443944131474   -0.87602226951803
H          -3.40367549364376    2.90085362831369   -0.15307573287254
O           0.31509169264662   -2.41240737941723    1.56304766103895
H           0.01041906375490   -1.58654539252066    1.95736123916160
H          -0.13651064557820   -2.40941044352810    0.69767689429716
O           1.72852470673451   -1.50941332211378   -1.77927254914011
H           0.90660729652125   -2.01034230856198   -1.66594587786981
H           0.95728164440590   -0.20258911890083   -1.45953953975447
H           2.25152341719191   -1.66950588103847   -0.95989589390791
N          -0.26421539938918    2.47494052754098    0.65465658785359
H           0.09263627487990    3.04689029815930    1.41283057701957
H          -1.17612085454284    2.83527642161536    0.24581906140352
H           0.41105087984489    2.37720969136223   -0.10508347595351
H          -0.48164390797582    1.42170305973951    0.94536314799964
