    23
        -45.36803579  Gyration_radius:  2.36324361429 Dipole_moment: 7.127
 S           0.23170389004604   -1.47604900219384    0.39499513340002
O           1.00759078215364   -1.68509745170559    1.71439823116326
O           1.22093850583508   -1.13855699771949   -0.64738518338603
O          -0.50245967609291   -2.67225607047039    0.06163698928511
O          -0.67275380877130   -0.32376766106439    0.57226345937746
O           0.59591291114319    1.58661726226400   -0.66764130678405
H           1.42749405457722    1.11253280550017   -0.78083856336179
H           0.03677921078449    0.94637152805005   -0.16125530926018
O          -2.35251027851363   -1.51260808501699   -1.34519826591498
H          -2.67003014278781   -0.91025771830911   -0.66549348331520
H          -1.75849067188884   -2.13221399540226   -0.84815181110054
O           1.37343532216075    2.68127647926976    1.72631695049015
H           1.10167918912673    2.45588084958854    0.81521279806018
H           0.98386839674993    3.53251262977190    1.93065395210657
O           0.28894321440580    0.47621764523626    2.92849892971884
H           0.82641377355587    1.25063081776239    2.66870538346456
H          -0.40851047001985    0.41257282070797    2.25686084049586
H           0.84920961464110   -0.89333153223920    2.30751571230964
N          -0.32273067121461   -0.32881508004664   -2.49841737851031
H          -0.13268617791168   -0.54201356457309   -3.47191060964257
H          -0.30577067491937    0.67933483604540   -2.31331174260993
H          -1.24457876523880   -0.76309362058161   -2.15969337364151
H           0.42655245216841   -0.75588687486620   -1.81776133234634
