    23
        -45.36777288  Gyration_radius:  2.32683379081 Dipole_moment: 7.961
 S          -0.70029519264967    0.39237315476571    0.04158597732653
O          -0.26441750566059    0.26156451175988    1.45218739034152
O          -1.07106854434791    1.74912586956138   -0.25701058103938
O           0.37118237898881   -0.08466903141925   -0.84512713139416
O          -1.91730119275028   -0.54191301952330   -0.15019667274667
O           1.71441963638408    2.16556953453828   -0.86343087827005
H           1.18591767806803    2.68057805397869   -1.47949339208812
H           1.34510939600443    1.25201855201072   -0.93179493718182
O          -0.83226394814169   -1.95097541649446   -2.50652656246074
H          -0.38795877072244   -1.18835271202290   -2.10475567241310
H          -1.75170250768285   -1.87802565341434   -2.24129245260356
O           0.90576188176520   -2.72499357415914   -0.40214666226299
H           0.47721402267602   -3.01297068641879   -1.22000110145430
H           0.97635860342154   -1.75980948070824   -0.50461168020277
O          -1.02776694325776   -2.37077990721865    1.36561625138254
H          -0.29453712769979   -2.70966265968316    0.79139113183859
H          -0.62958189987799   -1.67342388832948    1.90317896113897
H          -1.70999217718429   -1.35837086952074    0.42349721462288
N           0.74337214778281    2.58564254490302    1.54097762065531
H          -0.06544641165851    3.19137729087782    1.41689762212901
H           1.25562721836297    2.52431494420727    0.60035483288538
H           1.33826281986204    2.88254532281170    2.30830169683468
H           0.33910645832441    1.56883712949379    1.66239901496309
