    23
        -45.36777283  Gyration_radius:  2.32686889273 Dipole_moment: 7.963
 S           0.33343648874796   -0.64088434311285   -0.35492784536540
O           0.47123605991256   -1.02466403610177   -1.73359953533133
O          -0.91413788476994    0.10074144837102   -0.11993434268670
O           0.30574893983277   -1.89913769602234    0.54351134584832
O           1.48451265016965    0.18474282371001    0.08157206424406
O          -2.51833906801584   -1.61441162446600    1.35595633544781
H          -1.98390789698022   -2.41141320313305    1.37042344841930
H          -2.10588570659565   -1.04082856408312    0.69164864101798
O          -1.25327700428706    0.63347764945126    2.53633103712013
H          -1.95072384473557   -0.02800123011933    2.64369950574183
H          -1.15289409225527    0.71029296514297    1.57139263177580
O          -0.82245434098678    1.47200746740676   -2.35162186820284
H          -0.98239335603352    1.06098013868918   -1.46790264993560
H          -1.12040177394292    0.80707226620426   -2.97857699594371
O           1.03831489705844   -0.68075429857339    2.64415597148451
H           0.59291647285642   -1.56691103884816    1.46322347224409
H           1.57631823602658   -0.11373321256983    2.07575289562394
H           0.21264889910450   -0.16301577263355    2.82424109108897
N           1.79202449530503    1.27483734760570   -2.18580363138817
H           2.39228439955277    2.08387396334595   -2.31249900646432
H           1.79511528918666    0.87892415036108   -1.15827613754457
H           0.75305869898391    1.48188507919990   -2.35462969503457
H           2.05679944188403    0.49491976018168   -2.78413673217171
