    23
        -45.38152940  Gyration_radius:  2.23375675364 Dipole_moment: 5.496
 S          -1.12705877518018   -0.98153617261117    0.12167417575225
O          -0.99815703612585   -2.52601859445088    0.18181475019895
O          -2.51009293366568   -0.61962877479458    0.28033103486873
O          -0.26904655369994   -0.41219672860815    1.16484601724001
O          -0.61078806935841   -0.56155772854642   -1.20345659438733
O          -2.19472068403390    1.79352573550554    1.21726478339415
H          -1.65237788847705    1.59862358927845    1.98668565742500
H          -2.50930164908675    0.90891880271855    0.90987545485217
O           1.65156697996358    1.28508359038619    0.44301335706388
H           1.02293178746356    0.67977809214550    0.89361462896224
H           2.14209182894848    0.71103491978317   -0.16158325540864
O           1.97157975204537   -0.87657712771013   -1.31645120317354
H           2.22433710789324   -1.26020784218232   -2.15733419571641
H           0.98463398635023   -0.78235190120809   -1.33841740575959
O           1.49771000416903   -2.41960521989216    0.90295938083797
H           1.14297686301051   -1.68384810029917    1.42472169389704
H          -0.05296318434672   -2.70322390879578    0.43139308561379
H           1.92078754993969   -2.00212843756310    0.13096641778954
N          -0.53019494862192    2.01018568700668   -0.81055415330632
H           0.43822995728805    1.99136107134271   -0.37608166619898
H          -0.66337785556906    1.02191442232852   -1.17180962028306
H          -1.23750400504413    2.11422018606395   -0.02191953262098
H          -0.64126223384597    2.71423442007041   -1.53155281104474
