    23
        -45.37824511  Gyration_radius:  2.39123745 Dipole_moment: 5.928
 S          -0.43398346273221    0.44690548650014    0.71973767721763
O           0.55907201482672    0.76387843700524   -0.33157016933610
O           0.11574657463044   -0.52115758462513    1.64577008442758
O          -0.71596950057180    1.75883968477935    1.48893705112082
O          -1.67689321637939   -0.00925607137719    0.10822192139296
O           2.47927332857191   -1.66161321451883    1.57655800224675
H           1.66191286412699   -1.13046923767931    1.72999269637681
H           2.52158782765216   -2.29416483242891    2.29537284610693
O          -0.29198540788091    2.77510041620373   -1.84158878791794
H           0.29762462510668    3.50818968978851   -1.65621095395077
H           0.07079738738063    2.00498110547982   -1.35359961331968
O          -0.97455728712842   -2.50106045320172   -0.20010370148193
H          -1.37936915495905   -1.59889430388237   -0.17156868158205
H          -0.92974140482247   -2.76333511926350    0.72315146013233
O          -2.44071933300202    2.55318430962514   -0.23190400875630
H          -1.82835966668453    2.79002394245876   -0.95958406057980
H          -2.60500907064564    1.60306613601183   -0.33581309615165
H          -1.41459637910800    2.22683698622865    0.93689505754772
N           1.42188521522230   -1.61320557610805   -0.86154512654017
H           1.16268395771886   -0.57815090321443   -0.76847023639250
H           1.85701190630910   -1.82481493170696   -1.75262636952827
H           2.04266068982371   -1.81301612912148   -0.04514240756498
H           0.50092747254837   -2.12186782695082   -0.71490957346302
