    23
        -45.37078124  Gyration_radius:  2.32161632456 Dipole_moment: 7.197
 S           0.34734678557180    0.70225885591868    0.47106144399947
O           0.53616936977364   -0.70886262226867    0.09752839575291
O           0.03121600367360    0.76746052730334    1.96752619287651
O           1.51723443693849    1.49241348824599    0.19191693510889
O          -0.82228554702643    1.24112014897606   -0.27442892459355
O           0.23413230772406   -2.58566352432627    1.97722838610143
H           0.40690151550536   -1.97332008809665    1.23261777383532
H           0.98640069991956   -2.50802193431652    2.56580413234769
O           1.87165351168164   -0.18194389630822   -2.08653435706605
H           2.73146499713287    0.03973096782066   -1.71835451068510
H           1.35823613942584   -0.51894596934529   -1.31065251273431
O          -2.32446620893741   -0.96869781132485   -0.18968098322488
H          -1.63156402013178   -1.59594894007210   -0.41682989168191
H          -1.91511598795052   -0.08930989026184   -0.29611611846985
O          -1.81449057865906   -0.89559403164245    2.43786385347480
H          -2.25726273673235   -0.94972842946598    1.56158704995670
H          -1.23583611160311   -1.68427875248924    2.47544423118089
H          -0.76282706766629    0.14732597074949    2.20635922817061
N           0.54484508261781    2.08468562428466   -2.22523324495935
H          -0.17706735550687    1.80533936878186   -1.43910193999597
H           1.11527714524023    1.18573020222947   -2.34079266102276
H           0.11050902455726    2.40774058393362   -3.08405707901642
H           1.14952861444703    2.78651014167341   -1.80315540935562
