    23
        -45.37998796  Gyration_radius:  2.3383362019 Dipole_moment: 1.809
 S          -0.11577648692198   -0.54467306888797    0.79370313341032
O           0.71744496777919   -1.05683457609723    2.01774359148649
O           0.12456592850603    0.90315194639507    0.70430377963401
O           0.37923344789179   -1.23326611163523   -0.37505888496404
O          -1.52488691253307   -0.81914141344502    1.05470184446332
O           2.71973274957923    0.91190259725445    0.04448467496733
H           1.80634964943896    1.00401165519166    0.37966785650456
H           3.11438917383597    0.20842153103900    0.56286775364655
O          -2.17192045959338   -0.68393850258640   -1.52331221431647
H          -1.67875389305274   -1.44930721167860   -1.83238898144786
H          -2.10900614827498   -0.73656679136122   -0.54572902421437
O           1.72314649857457    0.03576535824033   -2.31133958835524
H           1.33807977449323   -0.68491216499247   -1.77615374462529
H           2.33477546270268    0.46503279508119   -1.68021496272380
O          -1.26830415472173   -0.43939805690355    3.63883506019020
H          -1.67736925591084   -1.15722914070740    4.12777802903924
H           0.19051646212765   -0.79934437787492    2.80474472079700
H          -1.63979013919901   -0.47389817305363    2.73356661000992
N          -0.46768802597673    1.34670454862538   -1.79267705681436
H          -1.24482326482636    0.64032570185693   -1.87541057301523
H           0.42813662622724    0.92025436477690   -2.20664156224622
H          -0.70858780538787    2.24822452870893   -2.18891160790573
H          -0.26946420474768    1.39471455205090   -0.75455886351982
