    23
        -45.37998797  Gyration_radius:  2.33837601711 Dipole_moment: 1.808
 S          -0.43670742588305   -0.56055776530904   -0.65980508702798
O          -1.13391500015337   -0.40659425293489    0.59535008599950
O          -1.50679386299645   -0.44620982384233   -1.79843828319605
O           0.52088236824076    0.53360733546815   -0.87823522609093
O           0.22284657525522   -1.85631586266843   -0.78269232825925
O          -0.79149550803577    1.73887954761437    2.15925179223596
H          -1.15858337483438    0.90696033787491    1.80251308313284
H          -0.93259343980442    2.36609914193535    1.42212496870055
O           1.05186690618354   -1.83020429849344    1.74608645610676
H           0.85273351710704   -1.98095787905363    0.79737780453365
H           0.19296209260146   -1.87144217784648    2.17630633303972
O          -1.04840033891580    2.64417034047704   -0.37553356727926
H          -1.89802938345025    2.42510924300433   -0.76207653210706
H          -0.43641871772011    1.94240591297211   -0.67231013578483
O           0.03296781859665   -1.86580933472673   -3.40020547663097
H           0.35427863507640   -2.01785977449280   -2.48785505623092
H          -0.31098327655396   -2.70663657617480   -3.71073208305935
H          -1.07039240882721   -0.82617167527129   -2.59127466056754
N           1.54026712638728    0.77823621704685    1.50580479972056
H           0.69462213715146    1.27314043178114    1.94824115078292
H           1.32383254173811    0.78316307996198    0.47025196982064
H           2.42745902910078    1.21761390879822    1.72399733899536
H           1.50959397974664   -0.24062607609303    1.77185265316417
