    23
        -45.37202096  Gyration_radius:  2.35745511257 Dipole_moment: 5.559
 S          -0.60072216769286   -0.29266393754256   -0.85692248566770
O           0.19688414133523   -1.26231326021152   -1.56198989629858
O          -0.16244836455479    1.09350010023837   -1.10939496902415
O          -2.03976152546806   -0.41864106347317   -1.03414686811992
O          -0.38466597138683   -0.51329676437365    0.68965534706732
O           2.44073306554760    0.53690469069703   -1.25414651048149
H           1.52734306287303    0.88256534655289   -1.27519239783491
H           2.43453586269009   -0.20953493628345   -1.85998975265505
O           1.83174942630641   -2.99499377395279   -0.36446147286261
H           1.24185240643690   -2.43486696784150   -0.91086361969349
H           1.31855675906761   -3.76969267377525   -0.13118139808837
O          -1.58230270969790    1.22814475501206    2.38034315823028
H          -0.87892455897106    1.59669861500985    2.91828732897111
H          -1.19521119347902    0.45763424436212    1.91909211877167
O           2.09344681202226   -0.73029597236104    1.05537994364380
H           2.21024805403361   -1.64791557513438    0.73377849228782
H           2.41704566739364   -0.16782858763516    0.31139624150781
H           0.63298162863469   -0.59812239879851    0.88763987023469
N          -2.34205501927176    1.90192652273279   -0.09343992242174
H          -1.37467420287417    1.95878791734156   -0.52835943544605
H          -2.55716427438901    0.90760172397234   -0.44860754993637
H          -2.23521579332474    1.86408466710576    0.94336905749179
H          -2.99223110525137    2.61231732838082   -0.41024526965983
