    23
        -45.37998792  Gyration_radius:  2.33829274259 Dipole_moment: 1.810
 S          -0.53248142823461    0.35205701732247    0.73000690373403
O           0.75990363883712   -0.34625646320805    0.79326296613371
O          -0.47371044850414    1.49006278990387    1.80531429474314
O          -0.72426571541702    0.98840450398792   -0.55195730804189
O          -1.62450216086931   -0.55001879069649    1.08030788049254
O           1.17917029893127    0.99825910836930   -2.43403502797270
H           1.86782838535028    1.30920003583599   -1.81290617553973
H           0.35316690622422    1.20800163846990   -1.95673990585455
O           2.38753257618422    1.58866601976227   -0.08851526276954
H           1.88558573311882    0.86506839716673    0.33521107309709
H           2.05466982091900    2.39740452791256    0.30451273468518
O          -1.81226719413741   -1.50784213582465   -1.39572765986834
H          -2.09950931562406   -0.70291275938444   -1.83630452554064
H          -1.85441788337290   -1.28695044625841   -0.44083414948566
O          -1.27017050336680   -0.20854766001178    3.65825774351616
H          -1.48946210820720   -0.60856090841502    2.79190244189857
H          -0.62535932259856    1.03407347563931    2.66106503798634
H          -2.10666430326311   -0.02682769129402    4.09287623407313
N           0.84571850262722   -1.43688541935590   -1.57010153515078
H           0.96369276018745   -1.16151460408586   -0.55544260751579
H          -0.18505042717863   -1.63140946025051   -1.66745018675703
H           1.07658870504942   -0.53639158193758   -2.10997395001773
H           1.42400346333885   -2.22707958364534   -1.83272904584725
