    23
        -45.38152954  Gyration_radius:  2.2341368281 Dipole_moment: 5.495
 S           1.47648132026862    0.22239533258324   -0.13340061618275
O           0.72208349615921   -1.03389746938849   -0.10184632223260
O           2.15829966996890    0.43039234213609   -1.38279753643771
O           0.55236307924468    1.34252183703640    0.16680301204470
O           2.52121106961004    0.18588075287864    1.01239984095340
O          -1.92149448046324   -0.91977433693722    0.19564641162007
H          -0.97488498644971   -1.16182378040302    0.09605480335852
H          -1.95867133413442   -0.44985997804610    1.04029139197585
O          -0.94751065881074    0.76552132709388    2.21593502928783
H          -1.01735564486192    1.52076816057030    2.80149221122198
H          -0.36956241720980    1.04995615559846    1.46192414413567
O           0.40915214478455   -0.64252192307212   -2.99126664782343
H           1.18921252315138   -0.23065793863022   -2.54625782905405
H           0.35650836264659   -1.52412785949035   -2.61181902011466
O           0.95276679505967   -1.18244546686620    2.57111891912089
H           0.20843029879405   -0.56972037995573    2.71136936794595
H           0.76616766905156   -1.61620740869349    1.72478387152245
H           2.07991826056850   -0.30107635612569    1.75750225735075
N          -1.27299143862940    0.84952999938376   -1.62251866252838
H          -0.71522947498855    0.27812568641927   -2.32654124431009
H          -1.80504347404736    0.17042187492242   -1.00374720041547
H          -0.54874964927261    1.26894873778630   -0.97134984172944
H          -1.86110115046375    1.54765070116609   -2.06377633972020
