    23
        -45.38152892  Gyration_radius:  2.23453836254 Dipole_moment: 5.504
 S           0.17043183979918    1.45826959969638    0.30699316062362
O          -0.27299028139302    2.18682092229707    1.60253391521310
O           1.01246290235687    0.32102919882438    0.68926882323826
O          -1.06224850044309    0.94469994151541   -0.33742567950242
O           0.85346662277702    2.39359211042343   -0.54614179634350
O           0.26841382231429   -2.12189118190193   -0.06527646733894
H          -0.60106028431501   -2.15115677144292    0.35781471668768
H           0.69207009917620   -1.31939030314937    0.31014798343480
O           2.31462083002249    0.72231343509625   -1.91309963777726
H           2.79310388954630    0.29545995922958   -1.19707996226447
H           1.87226659561640    1.49568531069401   -1.48585524845302
O          -2.06348005049019   -1.02479220548582    1.04103423383590
H          -3.01641800530126   -0.94191688689059    1.09811869600990
H          -1.74749896410282   -0.25043635473263    0.50824388384955
O          -0.37507994660272   -0.02744273837467    2.96287269371923
H          -0.39880196320673    1.47035085496578    2.27892743917992
H          -1.08001844341616   -0.52343888863660    2.50913433525172
H           0.42405575136938   -0.18807747876081    2.43822586724548
N           0.03072797274933   -0.56371245894161   -2.15613684450893
H          -0.54671392081504    0.12381833140948   -1.59189977841221
H           0.99371731223670   -0.11704329252298   -2.23542936484576
H           0.11647717205378   -1.40614789874758   -1.51557294906317
H          -0.37750444994105   -0.77659320453689   -3.05939801975692
