    23
        -45.38152948  Gyration_radius:  2.23397796594 Dipole_moment: 5.500
 S           0.82327431715001   -1.24953884808586   -0.09595596663927
O           0.32769268358430   -2.64458583954011   -0.55848589933516
O           0.48065521280213   -0.27637600038785   -1.13705333253637
O           0.06961843947007   -0.91601537124158    1.13664986268737
O           2.23727431342987   -1.31547434232034    0.15968861930072
O          -1.06567068551934    1.79050806377662   -0.48399600901280
H          -1.83991378737900    1.30534356500315   -0.16637725079627
H          -0.50974731459479    1.10337619831761   -0.91228079950535
O          -2.42510934206247   -0.42339178686128    0.57482808506434
H          -3.00054042954851   -0.84015973654259    1.21776420704368
H          -1.49751773886222   -0.64721607501351    0.84461128987923
O           2.83738479551275    1.19566507277179   -0.20409364011918
H           2.51470357813515    1.31185313656492   -1.10212138026037
H           2.81041063300916    0.21868131366394   -0.05898731935247
O          -1.73763446352833   -1.64726917118249   -1.78388284073337
H          -1.07047483553453   -0.98276650852109   -2.01364437950571
H          -0.51688034340402   -2.47498483636804   -1.05333728953882
H          -2.24613255174639   -1.25354074819127   -1.05207249094482
N           0.76679704345081    1.58065198015028    1.37478279106366
H           0.53205924296658    0.55474198170420    1.50496853883460
H           1.67522256829870    1.58848889492193    0.81979549349168
H          -0.00447598880000    1.93678550052699    0.73801515426567
H           0.83900464319254    2.08522354681383    2.25118455665414
