    23
        -45.38152954  Gyration_radius:  2.23406819146 Dipole_moment: 5.500
 S          -0.59776514790701   -0.31533796053578   -1.33854557996270
O           0.04258280977188   -0.04907934824067   -2.59877926422128
O          -0.92412026850082    0.94332110137926   -0.62585243200267
O          -1.94264540506429   -1.04289765955360   -1.59874617709986
O           0.21407347724734   -1.16014458018835   -0.45786874576905
O           2.51622107450514    0.07957023864332   -1.78524014767913
H           2.59881002904661   -0.78619057738602   -1.37571686333174
H           1.66100193367323    0.03645187588373   -2.27807891574871
O          -1.71709155596588    0.43858445532047    1.80240782891767
H          -1.46634984293601    0.67833748533841    0.87333375364112
H          -2.47463753286858    0.98132695891241    2.02553604576082
O           1.02311346052505   -0.15722816551518    1.87202581041054
H           0.81205799342116   -0.69722376738056    1.07926018296384
H           0.15937800080697    0.04811050081799    2.25610858612982
O          -1.98099279996403   -2.09447340328759    0.77925302989646
H          -2.15836717518929   -1.51152758083460   -0.74975291190610
H          -1.03817888140959   -2.18381721454379    0.57321894940845
H          -2.04145124837863   -1.31093313116473    1.35507397057324
N           1.48541808482361    1.66304664859092    0.04734446534321
H           0.48345196665174    1.59226367373699   -0.29257359429761
H           1.48929952897550    1.09043541322532    0.94136259669460
H           2.06162138198747    1.13704440014561   -0.67699132532047
H           1.79457012680668    2.62036062666117    0.17322072752959
