    23
        -45.37227409  Gyration_radius:  2.41895259531 Dipole_moment: 6.276
 S           0.03891635754981    0.93100987194888   -0.59809744415506
O          -0.48335224882903    1.71584389836893    0.51431437348763
O           0.00707791907718    1.84082290293904   -1.85073821167490
O           1.40555103594862    0.48371797204628   -0.38225920834858
O          -0.84528272732524   -0.22126811679614   -0.86413803793572
O          -0.71719157750504   -1.29183122083223    2.97903987440468
H          -0.43286286753135   -2.19059963425701    2.80566305008663
H           0.07355342677382   -0.71796062238203    2.80004910865226
O           1.26522138048524    0.29210373335421    2.25477245603684
H           1.42832978045496    0.27413829294960    1.28718948234376
H           0.99843358809231    1.19882869031970    2.42729685248224
O           0.57425747999224   -1.63673575120459   -2.62097149805071
H           1.12626694736699   -2.17925099923301   -2.05425611473091
H          -0.03758497501283   -1.16210979878862   -2.02137721027140
O           1.94841641247277    0.63915945641163   -3.03838138381254
H           2.31663288003335    0.57729595545508   -2.14523845959864
H           1.50812439885444   -0.22485499706246   -3.18322923434747
H           0.71738168790846    1.49449981207636   -2.46806864550312
N          -2.23432414314816    0.02263409753105    1.25878468096854
H          -3.23512133948707    0.14166609089732    1.36520215594072
H          -1.93738140213786   -0.35283776401836    0.31595747667511
H          -1.69131372671571    0.93410601068105    1.20280392266382
H          -1.79374827721277   -0.56837789026147    2.01568202486923
