    23
        -45.37036745  Gyration_radius:  2.37930639044 Dipole_moment: 6.243
 S           0.40787743626597   -0.96338636358924   -0.00499460679395
O           1.27354006193228   -1.23036334368917   -1.23664970083222
O           0.52350643822979   -2.11767385666640    0.88138723198352
O           0.88263882759677    0.25659006988468    0.65441363264367
O          -0.99254126814421   -0.79019326306899   -0.43062329621721
O          -1.45903094133865    0.89033386763035   -2.41981193266084
H          -1.34820970909187    0.31192602742657   -1.63326311385262
H          -1.95039201008797    0.37462919289239   -3.06157817883394
O           2.12919579941361    2.21459268864348   -0.63989071087138
H           1.63820991097480    1.56986133449901   -0.08743923554741
H           3.05793781260120    2.07744931944219   -0.44569055487954
O          -0.48768101031837    0.64861381818633    2.85229654331575
H           0.16126341732881    0.70636804488319    3.55588101529182
H           0.03311735455684    0.62225160039664    2.01001385584945
O           1.19704227358817    0.80566526727699   -2.71498337376555
H           1.57567247571678    1.48074798773211   -2.10989582470302
H           1.26499670819805   -0.41716326497389   -1.88795737437414
H           0.23191188919814    0.98940973275188   -2.74444609768205
N          -1.68149430240214   -1.50808950720134    1.93589053509701
H          -2.42248656869898   -2.07796595994221    2.32849273705747
H          -1.40956406468619   -0.67686333790659    2.52198668606585
H          -0.75699942677705   -2.01889037669199    1.70852949719405
H          -1.86851109408732   -1.14784964786116    0.96833228647631
