    23
        -45.37376549  Gyration_radius:  2.33142218391 Dipole_moment: 1.659
 S           0.98311997043396   -0.23083337309331   -0.53410237178384
O          -0.17378367057903   -0.42334933669678   -1.38936782407810
O           1.07773344363469    1.16051596515645   -0.07883429717607
O           0.97464251950365   -1.16009571583831    0.58953855053103
O           2.27559509710589   -0.54436437311476   -1.35186367011242
O          -1.52888832028652    1.43446678942833    0.26641576519651
H          -1.82388292760146    1.22532408572159   -0.62505320739382
H          -0.55158994577875    1.49076588408860    0.19133934464904
O          -2.18584690910149   -2.07650873178912   -0.94294107928872
H          -1.95120846367595   -2.93682318703236   -1.29356561290305
H          -1.46960408698372   -1.46484514706166   -1.23460047719774
O           0.54460450727043    0.48365013603185    2.76196173943025
H           0.68234875944015    1.36417282739127    2.40653609391964
H           0.96974716431193   -0.11107317241962    2.12785772300625
O           2.35058873821297    1.94657246067187   -2.23695226936212
H           3.13908526265012    2.45125187750281   -2.02463894358890
H           2.41843407381458    0.24681520909124   -1.91203865495360
H           1.80053363446840    1.93329103459690   -1.42745325105806
N          -1.53351400149396   -0.97436460883235    1.37348353065645
H          -1.77786006668162   -1.13635290565612    2.34508179845452
H          -1.66065068452274    0.04377848435873    1.10235130001291
H          -0.50719524169156   -1.16320520445252    1.20443664855452
H          -2.05240885245567   -1.55878897804881    0.68240918448746
