    23
        -45.37376554  Gyration_radius:  2.33148105504 Dipole_moment: 1.659
 S           0.82289165690936    0.04750452864184    0.79077698860251
O           1.43377806093362   -0.70502999670686   -0.29858093841256
O          -0.37890504722351   -0.60547568665241    1.27681131632797
O           1.87807844885806    0.08784700496820    1.94077205964110
O           0.54843318378958    1.43380010362146    0.39714871837989
O          -1.50091363749304   -2.76816987829761    0.25456251128942
H          -1.14456538823759   -1.99115941697102    0.74595855324295
H          -1.08568193993517   -3.53688647182718    0.64810452992522
O          -1.80152084779447    0.87363301627924   -0.67659408238811
H          -0.96101905769956    1.23885463559521   -0.32434221498607
H          -2.23087441231616    0.48334847568693    0.09074362741484
O           1.05495380898214    0.93308135177560   -2.48467650927328
H           1.47494496149364    0.44531423562400   -1.76206608585635
H           0.78071894582685    1.76583410152607   -2.09498444192243
O           0.85313670918311    2.35480998075853    2.83720030545191
H           1.58572963578312    0.81676979342869    2.52678453017797
H           1.44574063576632    3.10950940012895    2.86417881055028
H           0.57628869120213    2.24987392942552    1.90425715948608
N          -0.68054605902002   -1.26767098292732   -1.76579510698643
H           0.26384627105948   -1.12675518818950   -1.31205576451809
H          -1.21846221160468   -0.38347586323302   -1.53097096596635
H          -0.58711631128279   -1.39399547857267   -2.76841911063136
H          -1.12893608718701   -2.06156158414081   -1.25881387955157
