    23
        -45.37922156  Gyration_radius:  2.33756843055 Dipole_moment: 2.110
 S           0.73729413537895   -0.60406465320996    0.10230167967582
O           0.52731448196646   -0.32025888651616   -1.31821496196562
O           0.34185565984750   -1.96401275035462    0.45227361599044
O           2.28627087897590   -0.47167043474619    0.31463855112441
O           0.07735218841633    0.37606079461342    0.94200024505316
O          -2.21209906558319   -1.23734774824754    0.71788319217076
H          -1.34324994368955   -1.67640086591562    0.60336825124667
H          -2.08547586281481   -0.66703645599412    1.48240458549967
O          -1.06308439485044    2.54659291210566   -0.08315643110166
H          -0.67838478349368    1.90607751824537    0.54968299744000
H          -0.29673998520306    2.77619371550488   -0.64420258852633
O           1.28412805459877    2.25039574017565   -1.40658540724319
H           2.08518380275016    2.31890041982656   -0.88437156329915
H           1.10054772067499    1.29413204717887   -1.47927294327160
O           2.24522416806709   -2.29257331438846    2.22698650644741
H           1.40714851907035   -2.38110045595791    1.72804514808042
H           2.74478362114640   -3.09597428403404    2.06423235659702
H           2.48741348268547   -1.00233281108273    1.11422584102487
N          -1.96845043033476    0.45177802685312   -1.32733183217443
H          -2.58880853898792    0.47787171185048   -2.12873679287638
H          -1.78690166836501    1.41894807630112   -0.88769989278567
H          -2.29797083859882   -0.20527547802814   -0.57193695483001
H          -1.00335119165583    0.10109716581704   -1.56653361228026
