    23
        -45.36683657  Gyration_radius:  2.44292840916 Dipole_moment: 4.882
 S           0.75994298564449    0.56803898777557   -0.11839146807292
O           0.22103316395163   -0.05926816736855   -1.32114428254761
O           0.48624060684277   -0.25431571937835    1.06885574398574
O           2.19760417969036    0.80901351081200   -0.22685795283475
O           0.05012713240852    1.93121265285777    0.07953686703281
O          -3.50347856937238    0.48399941106468    0.43112680802133
H          -4.29186887304594    0.93673947382002    0.73444038185973
H          -2.84689557451809    0.55036201063734    1.16281265858112
O          -1.58280688087586    0.93265121431834    2.24306633525350
H          -1.29858232727121    1.83760013840130    2.08816326365929
H          -0.84437380611855    0.38352280467727    1.90704329590155
O           1.53611139415337   -2.28765420725638   -1.74042409219761
H           0.93705613702093   -1.50634521116012   -1.62771655795491
H           1.93373878541458   -2.18144412875494   -2.60676627398687
O          -1.92988907059160    1.54504159167695   -1.45017747263596
H          -1.40419867977781    0.80233744314811   -1.78620007337728
H          -2.60637643402332    1.14612103920722   -0.85419853086649
H          -0.77243590995065    1.92504601945899   -0.52770992454569
N           2.64124829916577   -1.55907988262719    0.53290081350068
H           2.79138744927553   -0.53985656558888    0.21029955062303
H           2.37207475678424   -2.08734596551906   -0.33928298052374
H           3.39605057061128   -1.97558488728432    1.06675103755658
H           1.75829068457836   -1.40079156291761    1.07387284356822
