    23
        -45.37376537  Gyration_radius:  2.33136046069 Dipole_moment: 1.662
 S          -0.16451063153973   -0.79270761195584    0.80667906347959
O          -0.35439885837328   -1.80808068323516    1.97728184528151
O           0.04146106128288    0.53270032366911    1.36133641717238
O           1.00282386098603   -1.22831954860646    0.03217357579130
O          -1.38485424164163   -0.85297697894746    0.01093534533288
O          -1.43536916596103    2.67132058101183    0.88362433552746
H          -2.16673128101217    2.67658232664752    1.50262610353028
H          -0.84769302514544    1.93354938970441    1.17061216992172
O          -0.44393140981403   -1.18772003132859   -2.55996105940293
H           0.48230064494503   -1.40321168170313   -2.43244917802799
H          -0.86024049321643   -1.35791149725969   -1.70307845678930
O           1.44445444992301    1.15639128893310   -1.02007320985260
H           1.41278309227602    0.22249307812032   -0.71889716192228
H           1.55044299646361    1.66361641866170   -0.20951236771161
O           2.26360034529895   -2.13880290983510    2.14811267518818
H           2.06509855643644   -1.77759459901666    1.26033741976256
H           0.54889198242292   -1.96899494079633    2.32138624142713
H           2.58998861518304   -3.03154357516308    2.01406008030389
N          -1.17123120479874    1.36065399914200   -1.40106270183298
H          -1.45673015581189    2.10947719624575   -0.73335043555695
H          -1.41165379925995    0.44352694718012   -0.93327740471521
H          -1.59313156738037    1.42040649086838   -2.32215388870947
H          -0.11136976126313    1.35714600766894   -1.45534941820066
