    23
        -45.37824523  Gyration_radius:  2.39132889791 Dipole_moment: 5.934
 S           0.19687796430407    0.43946544427932    0.82430421075172
O          -0.02238054050140    0.80695453531812   -0.59303016815805
O           0.38373365172140    1.75734021004385    1.61216578227780
O          -0.97712044750841   -0.25069536234570    1.34593269640927
O           1.40510844860800   -0.34854628723707    0.95151728924149
O          -0.35843863499042   -2.62723004679394    0.47035874837255
H          -0.73990169681146   -1.79651508821087    0.84830040880946
H           0.40942198702970   -2.80099825017021    1.02094008525243
O           3.03619852488447   -1.12333248701797   -0.95404368026133
H           3.70997165114574   -1.67733203892010   -0.55678133779338
H           2.54784714104287   -0.70899996644806   -0.20331680850449
O          -2.03477747165170    2.52338353029008   -0.82213942681149
H          -1.30833777528183    1.86356361079126   -0.82116285368026
H          -1.64200219924080    3.34976016260654   -1.10884916922632
O          -2.14171260330279    2.12954805942231    1.84102129304808
H          -2.16742862816101    1.16009030919465    1.84594110052974
H          -0.55347436268864    2.06606260963979    1.80677074804022
H          -2.34262057106904    2.38823621618979    0.91724835901635
N           0.51445654055247   -1.45208955365160   -1.72654472460587
H           0.25013416686555   -0.46342037358837   -1.41053257817356
H           0.12606128116294   -2.07784380282535   -0.96112773809132
H           0.15044048507996   -1.67460602335964   -2.64640879478783
H           1.55794311881063   -1.48279539721134   -1.68056345165390
