    23
        -45.37998782  Gyration_radius:  2.33808301781 Dipole_moment: 1.816
 S          -0.88664193201802    0.05365324458342    0.38334974084799
O          -0.84959438898783   -0.00516903880703    1.84074511854577
O          -0.21328010154016   -1.11492494791628   -0.20236444493542
O          -2.38395216328050   -0.02458290773133   -0.07173174576138
O          -0.34835811926796    1.28758760601514   -0.13900857321894
O           1.49882991560184    1.32695972111213   -2.07504215553323
H           0.82279472936976    1.63186696750935   -1.43928685469294
H           0.99261375445661    0.71353740235075   -2.64439482126991
O           1.57161999553163    1.09556848128353    1.95845363108079
H           1.34777489008549    1.96469959704353    1.61342157154997
H           0.70345061840785    0.65776174459643    2.08825611548369
O          -0.37077630990900   -0.48662512416528   -2.80061754751473
H          -0.35863747859315   -0.84168079476907   -1.89032518465928
H          -1.23825262458030   -0.09381296441381   -2.91199005769567
O          -2.93581320211591   -1.59187387618749    1.97486064954827
H          -3.56756256337437   -1.26290011303310    2.61865996356637
H          -2.78896260471481   -0.69997965827328    0.51431502099831
H          -2.08330115794637   -1.15350384928545    2.17439060653714
N           2.26317072137276   -0.30983896920760   -0.19776672785576
H           3.07761548241793   -0.91106460579043   -0.25253840097362
H           2.17142855786091    0.36715592320696   -1.02786506561152
H           1.35329438645368   -0.84960960280357   -0.20912462112191
H           2.22253959463954    0.24677575452176    0.69560378247848
