    23
        -45.37998797  Gyration_radius:  2.33829770752 Dipole_moment: 1.812
 S          -0.08642207421304   -0.25208569663139   -0.93114102762082
O          -1.32042148047464    0.03598109126630   -0.23876613990228
O           0.32571816513856    0.82792909610016   -1.82138948305092
O           0.99045747211020   -0.58913360805757    0.01156826940608
O          -0.33291643933516   -1.53381011989075   -1.79788105384308
O          -0.36024990850821    2.71426300305560   -0.07330930300837
H          -0.03187487644836    2.15240545614509   -0.80736226212925
H          -1.30921408807266    2.55966364721229   -0.06497015104927
O          -0.25682513077557   -2.42394324656021    1.51131590359439
H           0.30333179428936   -1.84475903786133    0.95831480342483
H          -0.78248567034284   -2.93754462451593    0.89551061742895
O          -1.55976654175392   -0.23320567779071    2.41352534310982
H          -1.79582679867669   -0.10030741959409    1.47506340544441
H          -1.17953662413201   -1.13442339097388    2.41069251627964
O           1.58657201993707   -0.79942277142849   -3.44931811437563
H           1.33428198645579   -0.00501829108907   -2.93558885679744
H           0.39879033781687   -1.53840468249945   -2.45216378695685
H           1.33806538179991   -0.62409422247534   -4.35989994645914
N           0.57213870682546    1.16866443278536    1.88685156739037
H           0.95754801192807    0.44855885531232    1.21434712788773
H          -0.29020264054328    0.68819600347007    2.31239722213433
H           1.25263221307654    1.46619677417510    2.57690426617289
H           0.24620618669649    1.95429446352581    1.26529908144561
