    23
        -45.38152953  Gyration_radius:  2.23404145083 Dipole_moment: 5.498
 S           0.80560713740606   -0.81975081673985   -0.96243669871816
O          -0.25836149409607    0.15247124655637   -1.22907648976639
O           0.38878017817664   -2.17497051300349   -1.59134100595832
O           2.07432852006784   -0.41956991029808   -1.50959814484611
O           0.89709106608076   -1.03870694412100    0.50118234038411
O          -1.43779021394816    1.34215725496018    0.84030927668724
H          -1.13962754987252    1.00440143921237   -0.03239318457027
H          -1.76638416836050    0.55659433849459    1.29922022827324
O           1.88071106090176    2.15644642479801   -1.15643185968104
H           2.11921999647975    1.22823669916099   -1.39666447533953
H           1.06973779776431    2.32753487990167   -1.64343316392509
O          -1.47393612833197   -1.37902874864272    1.52266688058813
H          -0.54855382728351   -1.30160485551962    1.17477404818379
H          -1.46447561691732   -2.09832148268033    2.15564428330789
O          -2.13454276768452   -1.76688582364789   -1.11279556011334
H          -1.86916441276858   -0.87439881510255   -1.38184325914982
H          -0.59704729798850   -2.22637909748896   -1.48001902160508
H          -2.16237942219266   -1.74030073700843   -0.13930580125862
N           1.14400524036988    1.43734592745390    1.26618606034153
H           1.22040892900176    0.39252638085540    1.10226118132735
H           1.51864869955590    1.88555620578463    0.37627413971203
H           0.09710697160976    1.61122306675492    1.29979129994015
H           1.63661733202197    1.74542390032464    2.09702891618464
