    23
        -45.37182633  Gyration_radius:  2.39863300171 Dipole_moment: 5.921
 S           0.05285154234295    0.12355601506198    0.90675183431789
O          -0.02826549205502   -1.17137877886464    1.53197881592014
O          -1.26710193498416    0.54929079835907    0.36256766583072
O           0.63213204150689    1.16866236735751    1.71650747021589
O           0.97312537068504    0.02278844330126   -0.36141285054268
O          -2.08635328369256   -1.90910675086269   -0.30111809852167
H          -1.88320035377769   -2.41253453532361    0.49248457415245
H          -1.95208681755875   -0.97769815496390   -0.04375266148958
O           1.23229807358468   -3.33523944759730    0.63073810534413
H           2.13584592301367   -3.30077303068182    0.94738417122609
H           0.75992555356412   -2.60384142594536    1.08109291447798
O           0.78232669299379    3.57721926990788    0.79971831735608
H           0.30653986240760    4.11588946131823    1.43475063325637
H           0.85550663868736    2.67674776293055    1.22034133374342
O           0.26453797247874   -2.09002517094923   -1.54567380594082
H           0.69804088508362   -2.74723717911857   -0.96400073062080
H          -0.68537913230955   -2.11910388946632   -1.28333988726645
H           0.72411066319494   -0.83444389065505   -0.87752418035161
N          -0.31324566293835    2.28227084513658   -1.19214109223952
H          -0.87961109653629    2.70393472299042   -1.92088853032032
H           0.09431159024735    2.98868384850944   -0.50968768925997
H          -0.87100913707265    1.56531045924137   -0.55157594359239
H           0.45470010114166    1.72702830031050   -1.57320035570022
