    23
        -45.36135116  Gyration_radius:  2.46927095573 Dipole_moment: 8.990
 S          -0.97297755704801    0.87762533357892   -0.00177952455762
O          -1.41352015581656   -0.23904085895217   -0.99025328331143
O           0.41135727994298    1.21756457606369   -0.24067162735481
O          -1.92682837425460    1.95867370436353   -0.22117398677325
O          -1.16480380829120    0.29253291063841    1.34669196925996
O           3.86777121142174   -0.19473681899811   -0.07722073482385
H           4.05001117835623    0.69977417672318    0.21657261627273
H           3.18766602284115   -0.54203960921592    0.51844043254569
O           2.03454967718499   -0.02852767947467   -2.13802718021825
H           1.49910300391579    0.63060577886280   -1.67154110597902
H           2.84331735541666   -0.12767512466708   -1.60241846267333
O           1.47139231947181   -0.69365254755099    1.26540713254335
H           0.84560962058728   -0.78112726219973    1.98864669730246
H           1.15324720022471    0.08894085165182    0.76679440045250
O           0.51001432825189   -1.88618237745878   -1.04542621539871
H          -0.68522856883943   -0.96433907742414   -1.05547215529073
H           1.10353919921308   -1.36456782881460   -1.64467713762812
H           0.90211397813385   -1.77078658779336   -0.16200445782908
N          -3.61663999706321    0.54752945026059    0.96857467780773
H          -4.04047630262081   -0.18660179453659    0.41006208962672
H          -2.63376973953080    0.24071910311894    1.36473446221556
H          -3.16955727472198    1.31518556926995    0.33675973207932
H          -4.25589060677622    0.91012612255080    1.66798165173216
