    23
        -45.37432790  Gyration_radius:  2.32578419791 Dipole_moment: 1.834
 S           0.09333116227938   -1.14967743952580   -0.25169176815793
O           0.00247030055351   -2.58487263304976   -0.85785841707611
O          -1.06363478610895   -0.38914501022902   -0.72928742084173
O           0.07688853221754   -1.28709787284110    1.18746338711134
O           1.33613200766780   -0.54166026597542   -0.73796384131808
O          -1.64919020981142   -0.18701266392345    2.87975581610534
H          -2.39980501456012   -0.77459412271990    2.97754382640046
H          -0.98570679730537   -0.68627432608301    2.35217803095257
O           1.52215044439207    1.16487084110181    1.27491260669780
H           1.60512669875958    0.58774451083541    0.48520571885708
H           1.54276744600051    0.55590573902240    2.01870945027112
O          -0.00433614830760    1.99384266398395   -1.63478299340385
H           0.93870115799101    1.82026394038371   -1.65955982412260
H          -0.42444744767659    1.12181542109740   -1.61738787595795
O           1.14295359398296   -1.70934666638288   -3.07710141557254
H           1.96017048061154   -2.13352742514974   -3.34786542934022
H           0.24683890921171   -2.47263645456735   -1.79988904032190
H           1.37378172568951   -1.09369508789171   -2.35163892002988
N          -1.08622943431767    1.58956057237391    0.98823151844652
H          -1.46294005834102    2.48575568384949    0.69628499781199
H          -1.21903279071623    0.86029958041278    0.22835837801047
H          -0.03645348132164    1.63613313645891    1.12357319948475
H          -1.50953629088269    1.19334786881590    1.85281003599777
