    23
        -45.36156720  Gyration_radius:  2.35293065398 Dipole_moment: 6.056
 S          -0.19497057029075   -1.25235078996942    0.33520743350115
O           1.14216637784926   -1.60523366571095    0.68730979372560
O          -0.54701657680201    0.11280905909633    0.99972815628002
O          -0.48804735176164   -1.13326441222116   -1.06832043335476
O          -1.19459471574779   -2.21221567570040    0.98648667283626
O           3.00477988584243    0.24953793635697   -0.08772797688067
H           2.53791395167384    0.50236795834162   -0.92012348962223
H           2.68851599793189   -0.64470363121007    0.10779145031913
O           1.24977066605045    0.78178911873323   -2.00842776329416
H           0.77551677219302    1.56451662407001   -1.67778060800828
H           0.64460407163079    0.03544090938898   -1.87799189854178
O          -0.13258501894723    2.57416588282355   -0.41011991565382
H          -0.64176803689388    1.86694704660552    0.00157452501212
H           0.54649701417565    2.81095926371714    0.22860595749550
O           1.55219085059995    1.30005025633071    1.73855498921200
H           1.87421909746962    0.93538210685105    2.56518922705425
H           2.20531824077595    0.97872396338199    1.02530116885335
H           0.30535928328385    0.57767836184715    1.35650051474713
N          -3.18599678973156   -1.46777370042322   -0.42790212666105
H          -3.83052509456793   -2.13477258649144   -0.83094549611683
H          -3.70455884068199   -0.65951034499761   -0.11113486911806
H          -2.09287234399370   -2.00170297193452    0.52248649561956
H          -2.51391688004687   -1.17884070889404   -1.13426180740230
