    23
        -45.36156725  Gyration_radius:  2.35297037613 Dipole_moment: 6.053
 S          -0.85544931682297    0.30828348515699    0.94417553634414
O           0.08218051744731   -0.62883688707943    1.50329856687418
O          -1.20478229406141    1.36870095141813    1.99224639705680
O          -0.09672493259996    1.13301397985080   -0.13901743962628
O          -2.04113936823241   -0.23392105609287    0.36401814144537
O           0.75481814090526   -2.30403827471246   -0.57331157475016
H           1.37443905948861   -1.70786549137149   -1.02891706316693
H           0.56623556278850   -1.88262531356807    0.27940704741426
O          -1.56169510242136   -1.85667530881819   -1.79198983160726
H          -2.04736609007059   -1.56607492044413   -1.00614105431547
H          -0.71594495835221   -2.22510705889126   -1.44010426259556
O           1.93458709780781   -0.09009249171093   -1.74988846890908
H           1.37397853460558    0.02677178975020   -2.52270012391128
H           1.57707893583673    0.50063698601045   -1.07748367323763
O          -0.93010800185576    0.53605851335388   -2.44351883479238
H          -1.17000132655823   -0.44452626899035   -2.30347533919327
H          -1.76002935834851    0.97992098108750   -2.62856633608659
H          -0.47402967701696    0.93494150835329   -1.08160171870558
N           1.13843593001093    1.47855766922892    3.00136460626230
H           1.28551514273057    1.50213038506312    4.00164858207339
H           1.80797001702040    2.09165812915077    2.55598178877846
H           1.27589367309692    0.52968021828333    2.66248794006455
H          -0.31386219539415    1.54940846496945    2.48208712459330
