    23
        -45.37432789  Gyration_radius:  2.32582639672 Dipole_moment: 1.837
 S           0.68713690375016    0.18834962680519   -0.94163047443101
O           1.29013287599340    0.04703907757066    0.38559871566033
O           0.10862445663567   -1.05711926138583   -1.39378327850987
O          -0.28557741070322    1.28586780138169   -0.94278389739761
O           1.82341848522759    0.56496765895513   -1.94287081970149
O          -0.34279400589957    1.52230105887407    2.05236022718785
H           0.42232401386653    1.23355524956005    1.53421687969838
H          -0.88953096634228    2.01987659415788    1.44117404699041
O          -0.08654324633910   -3.32295624661094   -0.02184675267833
H           0.71242694576214   -3.83413644687252   -0.15811522668985
H          -0.02622540821980   -2.56197284831292   -0.64230692711017
O          -2.28843501999357   -0.22393770843670   -0.10163676366424
H          -1.66179533580513    0.45504523400943   -0.43314693462137
H          -2.31114905134055   -0.88761223910532   -0.79700768292946
O           1.57577596615269    3.10560204981274   -1.25275025853728
H           0.73995822677878    2.64619016670038   -1.03146167658150
H           2.02788138613943    1.50248196916014   -1.74545024736312
H           1.36865239492871    3.73217411019931   -1.94965840554164
N          -0.58156620393350   -1.30176400621587    1.62779585114470
H           0.26493558339354   -0.76964761557147    1.27126885187471
H          -1.39783893995686   -0.87085937641180    1.10759310331585
H          -0.46948499762562   -2.28427751436621    1.30270796854740
H          -0.68032666246038   -1.18916733388202    2.63173372134253
