    23
        -45.37432786  Gyration_radius:  2.32576308486 Dipole_moment: 1.837
 S           0.97649974677965    0.02363226361266    0.66360129879433
O           0.45644315224394    1.26448015775251    0.08488356637038
O           2.17509972500922    0.39685132101569    1.59072366832748
O          -0.04649597042528   -0.61487235318425    1.49817471761854
O           1.48212091288355   -0.86438383828886   -0.35915188694487
O          -1.15795495215084   -1.92089440819103   -0.51613834963212
H          -0.40598757926772   -2.43157245430055   -0.82969629182196
H          -0.84923025293143   -1.52552935139350    0.32763776963535
O           1.36285676049148   -0.50990000929649   -2.98851544029386
H           2.13492910997485   -0.01517439913566   -3.26668770960723
H           1.51138842106904   -0.72667636593439   -2.04048921531300
O          -2.27353056602913    1.12101678820903    0.46983702479419
H          -1.34746162611886    1.39355036206562    0.54306371499685
H          -2.37166489018494    0.38964611981481    1.08263521728448
O           0.48058066563039    0.93001853693280    3.54952259207196
H           1.76099432225252    0.79720883901803    2.38314781378516
H           0.03612089874902    0.33046843794304    2.91581300261485
H           0.58472749538378    0.43765507975120    4.36674341567178
N          -0.92679372372556    0.31866479074610   -1.92937422719301
H          -1.73292346686925    0.84132431852341   -2.25692944172069
H          -0.22122658442377    0.09161120551861   -2.66034780244614
H          -0.41195468476517    0.85653860064782   -1.17275273925408
H          -1.21653688357371   -0.58366364181980   -1.45570068773658
