    23
        -45.36156716  Gyration_radius:  2.35288923562 Dipole_moment: 6.056
 S           1.17505589733481    0.58172359851691    0.00980530623774
O           2.01955296633760    1.66406599856876   -0.66860483023191
O          -0.28098622054501    1.08719181930447   -0.22170425200850
O           1.31682928891599   -0.65767389771904   -0.70689180719998
O           1.43392298578213    0.54889035481307    1.41279396706618
O          -0.28421532422704   -1.06807520849463    2.80716022686714
H          -0.37408973273204   -1.74113645188608    2.09045465381521
H           0.56576848799715   -0.63782763602662    2.63300283286059
O          -0.42880278564240   -2.39938214299613    0.51385112913412
H           0.29271262481487   -1.96369114636683    0.03440141266895
H          -1.24955316649804   -2.07109822198088    0.10705597356398
O          -2.45499213417887   -0.76835423654874   -0.44149754299190
H          -1.82461429145316   -0.10623615649908   -0.74660677653338
H          -2.81547442811619   -0.42394811344056    0.38106679714610
O          -1.62006820567154    0.92161715958990    1.90938519996870
H          -0.81804611470690    1.07587181332217    0.66223982519669
H          -1.18743001254792    0.10288066846788    2.33484352169827
H          -1.41629075314469    1.65352126414998    2.49486675852205
N           1.57759568694866    0.84527649570631   -3.04667433136552
H           1.40913972369970   -0.07423269749506   -2.64637113766159
H           1.91234712671355    1.47823308966829   -1.67868867523042
H           2.31718160121833    0.78181364144372   -3.73350467363909
H           0.73445676969334    1.17057000590185   -3.50038355788998
