    23
        -45.37276217  Gyration_radius:  2.37705412105 Dipole_moment: 7.398
 S           0.80806263588022   -0.44585131402179   -0.03801046729586
O           1.54762348952960   -0.97433645095583   -1.19148197642501
O           1.07073003725043    0.98295616891163    0.13859056050371
O          -0.68774652097334   -0.56772255536516   -0.49386466777072
O           0.99655044109462   -1.20255036943613    1.17265463284778
O          -0.96121304784392   -2.42554159335078    2.49481215156114
H          -1.03772763868104   -3.31636342782913    2.15091549734548
H          -0.16136624810276   -2.04161566479018    2.07811394276586
O           0.76463542101226    2.50316513373589   -1.93513583903319
H           1.59181872907562    2.97649938233280   -2.04111846948296
H           0.84352216303691    2.02098154390143   -1.06864144085202
O           0.03968983849559    1.12819671008551    2.59555637364045
H           0.48144155785281    1.23093741027473    1.73119679762899
H           0.48928171497908    0.39013663167560    3.01650339471895
O          -2.06717377909543   -0.14476229538864    1.57343540433853
H          -1.93700035523156   -1.00256098847421    2.02464315470027
H          -1.46607052556995    0.47637581328393    2.04684927612728
H          -1.30035144891780   -0.37845328537766    0.31678569639440
N           0.18329775197860    0.15983361728823   -2.96607136020251
H           0.30736393550431   -0.08192712145338   -3.94341767077774
H           0.38979203662970    1.17820620584518   -2.75813080601490
H          -0.75496842471790   -0.05946713251913   -2.63263333614936
H           0.85980824681428   -0.40613644837287   -2.27155083856734
