    23
        -45.37182615  Gyration_radius:  2.39991917365 Dipole_moment: 5.903
 S           0.03967679304909    0.31123555521903   -0.85721820922090
O           0.43566075804983   -0.30466022048127   -2.10119181389679
O           0.94942838255173   -0.34766113178169    0.24009940071650
O           0.19423005606463    1.74199431908243   -0.79742972576100
O          -1.34044892754115   -0.10392844037455   -0.48017698320612
O          -1.72081643857640    1.84111397578249    1.31598511242487
H          -1.74927265770200    1.13469836597699    0.64374545664360
H          -1.42600851929594    2.62112455233586    0.83721942260837
O           1.79965273037479    2.99875882751940    0.91333393740301
H           2.68605180131959    2.98339097847852    0.55010746019808
H           1.21290495842688    2.64914717671791    0.21021797043839
O           0.14528302379929   -2.84748966908479   -2.44218241265414
H           0.38163809641911   -1.88067609865377   -2.39456819019403
H          -0.41195224476884   -2.93493732265871   -3.21782854209529
O           0.61447522710101    1.03943184688832    2.32137729110263
H           1.16061171877239    1.81593507817191    2.08289968212348
H          -0.31370487574912    1.33833776415817    2.17505521324159
H           0.85149191276746    0.19258247494970    1.11306693564413
N          -0.71739335536121   -2.49338820110202    0.00222069076060
H          -1.35073267330545   -3.11465099525857    0.49476736998029
H          -0.43836441007756   -2.84831126785813   -0.96049236737153
H          -1.13774634253262   -1.48175680957153   -0.18320305002110
H           0.13533498625717   -2.31029073842865    0.53419535110163
