    23
        -45.37350738  Gyration_radius:  2.31071850996 Dipole_moment: 7.163
 S          -1.09600947148353   -0.20548153538267   -0.00063056998758
O          -0.84825512764424    0.22761451030289   -1.37622191234081
O          -1.83472704381512   -1.47026321822429    0.03543477379828
O           0.30707768415776   -0.61195537800539    0.58203920345238
O          -1.65914832334694    0.83412611681128    0.82134549993509
O          -0.25590762983924    2.02330258967267    2.74561564251448
H          -0.86034389090527    1.63514007306764    2.07817194982511
H          -0.48793872040959    1.61627755752780    3.58102184278991
O          -0.12779252173942    2.72054907088647   -0.81272871395478
H          -0.81704661229418    3.00379134819757   -0.20588719769819
H          -0.44838980309252    1.87403406113164   -1.18159336197471
O           1.18554023709056   -1.15905047509393   -2.15101125434478
H           0.40113335784764   -0.56372923055324   -2.01584256923730
H           1.91693767323722   -0.71349064324097   -1.71591631636221
O           1.59293956165538    1.55279343807040    0.84160640938907
H           1.14153559637889    2.10731348455292    0.16095800152126
H           1.19607826111549    1.84552052415606    1.68410323365139
H           0.87349426826537    0.23549800048776    0.70128175812561
N          -0.02279268939256   -3.03092577703078   -0.76075762443257
H          -0.34601989305204   -3.82989972455172   -1.29713555846041
H           0.56308782595370   -2.36458955999652   -1.35932435366645
H          -0.88144861263111   -2.40284158387141   -0.40847575830109
H           0.50799589393921   -3.32373365891287    0.05394689576208
