    23
        -45.37068248  Gyration_radius:  2.30518705 Dipole_moment: 2.022
 S          -0.21215331671276   -0.50301194382754    0.98960283799508
O           0.96095923616422   -1.16554289235291    0.43058066633983
O          -1.35722467034895   -0.60153005427191    0.09546772872963
O          -0.54999867732180   -1.20535821502731    2.32449187546641
O           0.08380966298225    0.90777246186830    1.29074879628924
O           2.89477597219604    0.19395019587849   -0.79899786123722
H           2.86482849048665   -0.30444859014667   -1.62316289658284
H           2.39356640898002   -0.35182252251993   -0.15664204929267
O           1.04840521500555   -1.61956809791180   -2.17991741651731
H           0.68329497149122   -2.46601207687882   -2.44078087652730
H           0.98139886006703   -1.58418316733785   -1.19882634637099
O          -0.55966240087558    0.53915603439982   -2.12314875387532
H          -1.04621171057231    0.14692919964320   -1.35768878835690
H           0.00670766876592   -0.19558559503314   -2.43716973131187
O           1.02059627643739    1.92010820501027   -0.76343633604134
H           0.62849439893745    1.61522065505460    0.17409401488544
H           1.88814409154502    1.37543042557839   -0.83418382991417
H           0.34397150970444    1.46058446844305   -1.44136673431789
N          -2.54894023751554    0.43705810204423    2.47700612567477
H          -2.03016341039658    1.30510551531850    2.53010213013590
H          -2.69089830803170    0.23034356340684    1.49313725231060
H          -1.35663789057226   -0.69531127985770    2.62300522390909
H          -3.44706213041988    0.56071559851214    2.92708494861003
