    23
        -45.37647179  Gyration_radius:  2.33808065277 Dipole_moment: 3.441
 S          -0.55240262142105   -0.30637813766346    0.80192024616590
O          -0.14115256059177   -1.56457129634343    0.19086140780361
O          -0.54247428383121    0.77639894549457   -0.17090521109435
O          -2.02930734857939   -0.52481913207356    1.27374951048218
O           0.24838291148712    0.03175916046951    1.97646932548722
O           2.30446076143471    0.99793236944497    0.62824531463515
H           1.63775945672365    0.63110791760512    1.25142252579910
H           1.93044174478717    1.83287997670475    0.33512548644704
O          -1.83730966770014   -0.85680748152238   -1.96294431132901
H          -1.66010207422114   -0.20527287612431   -1.26800739998649
H          -1.68813176665756   -1.70426808388080   -1.53585346003227
O           0.27920300702838    0.67994262580560   -2.77970321006184
H          -0.47464814316329    0.09851006887634   -2.97942875513744
H           0.00110540800620    1.11051989216243   -1.95292007112030
O          -1.72866444702735    1.12343198920972    3.31830907920405
H          -1.82177876432371    0.72725359008161    4.18772150063531
H          -0.83317470025206    0.88815418848344    3.00031067005961
H          -2.18934235073616    0.12313184422034    1.99287253275870
N           1.85376688667910   -0.79371974004416   -1.28421478226038
H           1.08832511662696   -1.28539761939279   -0.73326598578847
H           2.24941720771580   -0.09506178979663   -0.60057344614345
H           2.55465860899403   -1.43529829011699   -1.63776266673551
H           1.35096762896702   -0.24942812165364   -2.05142831977816
