    23
        -45.37647161  Gyration_radius:  2.33796646111 Dipole_moment: 3.437
 S           0.41834258127223    0.69967595156761   -0.61676501039838
O           1.86189190240278    0.55421873946608   -0.44248825613170
O          -0.23268914154294   -0.59848622053338   -0.71610988242714
O          -0.18979249690564    1.51303000236943    0.42912610218804
O           0.17155667165634    1.47301079435927   -1.95569169771871
O          -2.68077688804267    0.64655441123761   -0.60194478399308
H          -1.86501073811348    0.24071705317279   -0.93148794919624
H          -2.40317615863955    1.50840875121699   -0.28110582286370
O           1.72092187334646   -1.34793399499289    1.38484981844106
H           1.46066079033255   -2.08825848661583    0.83059667317710
H           1.92160519567644   -0.62170854896496    0.75258486713035
O          -2.21292887085779   -1.60994408920038    0.87999249439067
H          -2.82036604735929   -0.93819636819149    0.52497142560382
H          -1.51635352395092   -1.64469502525716    0.20189015893704
O           2.42319903616404    0.57266388437586   -3.00845171628458
H           0.86367981744779    1.17042249334672   -2.58172755463177
H           3.07963419582878    1.24110211924185   -3.21762896897795
H           2.47440243211100    0.42612956087680   -2.04188455839696
N          -0.50478773763731   -0.23679770866201    2.32378274027675
H           0.40154422410747   -0.75268848494703    2.16728952560616
H          -1.29276188475671   -0.83705504985182    1.92827196992549
H          -0.64415188299719    0.02415179124560    3.29350194370799
H          -0.43464334959042    0.60567842475097    1.67842849162881
