    23
        -45.37647179  Gyration_radius:  2.33813107328 Dipole_moment: 3.442
 S           0.40664286611709   -0.93200072809367    0.09157919602923
O           0.69583486886649   -1.09064452011476    1.51513130993099
O          -0.98711493063282   -1.21570555841353   -0.22864853024736
O           0.79402207930999    0.38957238036296   -0.37974633001453
O           1.24835576655363   -1.99526277231914   -0.69105501423681
O          -0.27530534267424    1.25434231765292    2.24759977315168
H           0.07663732494473    0.34391530683796    2.12656509945389
H           0.41927804393145    1.82987643596801    1.91699482145950
O          -0.79264666459018    2.28191692933400   -1.55900638917528
H          -0.88657251019326    1.69933050985145   -2.33231763535139
H           0.01200526235701    1.93968847305545   -1.13269973786624
O          -0.42384466680972   -0.13998361996718   -2.78665562621156
H          -0.95019665644434   -0.90165922169838   -2.53033156253811
H           0.23894211647520   -0.06102836329647   -2.08431150103020
O           3.12373977786514   -2.03284421434740    1.17163200493416
H           2.10317680799545   -2.07608140156581   -0.21640539236826
H           2.33162183615956   -1.61255326987591    1.56447082043567
H           3.24067589511533   -2.87073215302056    1.62527841724116
N          -2.11915997101908    1.05198976106819    0.34223883301772
H          -1.54613012020496    1.26265270842566    1.20199125889868
H          -3.11587231530432    1.14197962290387    0.50456451130651
H          -1.76013731305870    1.67201825924122   -0.44798893296368
H          -1.83395213472602    0.06121312794692    0.08112060614423
