    23
        -45.37647190  Gyration_radius:  2.33782699098 Dipole_moment: 3.446
 S           0.50504059253166    0.86174233780621    0.20760439052918
O           0.61693394315228    2.00301846255796    1.27357896224333
O          -0.51421883683734    1.30094087141825   -0.73785132625898
O           1.81564720910559    0.70253718738294   -0.41874875796237
O           0.09657199156173   -0.35761072737976    0.88969483869497
O          -2.15517501942298   -1.84832903297241    0.44864467894528
H          -1.27471789706268   -1.65882220369345    0.81636813103027
H          -2.69056202531951   -1.11228221821755    0.79214148112834
O          -2.38858472243745    0.74291913667921    1.30671931854693
H          -1.46601470815499    0.47450489639336    1.43120183535256
H          -2.34087222516567    1.46505183604598    0.67488988805173
O           1.32335046078164   -1.67258172210940   -1.46524272005885
H           1.35640073481259   -2.21100859968213   -0.67023805671222
H           1.62720115159569   -0.78290603267171   -1.17627909190995
O           3.18794763225889    1.52922748956309    1.66269619310307
H           2.93512412038878    1.09122470216170    0.82441854533237
H           3.78207545043819    2.24542452129268    1.42713464190130
H           1.51151356544508    1.92645694410073    1.66925549242049
N          -1.21003464850069   -0.95172255271495   -1.82920105324400
H          -1.69393155825242   -1.00429075584288   -2.71854787692625
H          -1.03876781492754    0.04949139799262   -1.51385816273889
H          -1.73997818818108   -1.41776660274648   -1.02929641973464
H          -0.24494920777151   -1.37521934542674   -1.86508492176620
