    23
        -45.37647184  Gyration_radius:  2.33744857931 Dipole_moment: 3.451
 S           0.58988429369015   -0.66064584375056   -0.50552558604218
O           1.51642011723854   -1.19238010547206    0.49156844018176
O           0.58581161295038   -1.63873631172132   -1.72803096447074
O          -0.76501905235070   -0.58768480189137    0.02166307115438
O           1.01870281847354    0.62988011981631   -1.03150223014882
O          -1.53344636001151    0.78293975283938   -2.23611746242644
H          -0.66169786284594    1.03171348822699   -2.55434656946528
H          -1.36116168273881    0.06400620912246   -1.61017033260467
O           0.61599090633544    0.27155621793396    2.49799061338073
H           1.07706347518294   -0.29802028335698    1.84205544259883
H          -0.21874021465931   -0.17447263568067    2.66323444508262
O          -2.35646074415318    1.62591997890214    0.23757208318158
H          -2.40378950106939    1.66873278069249   -0.73318364258464
H          -2.09196791923582    0.70310657971181    0.39591040660921
O           1.21766826863157   -3.70627035341347   -0.20796772530628
H           0.68193706156714   -2.54316214398403   -1.35981995083347
H           2.06318929929657   -4.11843905618154   -0.39950139483512
H           1.41348997652961   -2.89676549169645    0.30667200032727
N           0.13012422508765    2.25269508769807    0.79239734936462
H           0.47936760964569    3.19797224930584    0.90350542977701
H          -0.92149340518478    2.20605070552149    0.61933157008075
H           0.57749134015589    1.74369944235068   -0.02731963360401
H           0.34663572746245    1.63830442503250    1.62158463057771
