    23
        -45.37533088  Gyration_radius:  2.41312759862 Dipole_moment: 3.576
 S           1.43246348161961    0.04148870286288    0.65131107889625
O           1.64081371277603   -1.00949780127025   -0.33867854416330
O           2.83481367369376    0.36049392190680    1.25608642889841
O           0.92438754220578    1.26791127240290    0.03343218823014
O           0.55690722480992   -0.40603939987822    1.72339139712429
O          -1.67795657140696    1.13043367804169   -0.52973762911271
H          -0.73483227075241    1.28924689341178   -0.31352696163627
H          -1.98488660710281    0.48267073830281    0.11823247819489
O          -1.80372600011507   -1.17774663615965    1.12073442913989
H          -0.90193209478316   -0.85749046147541    1.41810125977536
H          -2.23233398094059   -1.51723594677576    1.90766904717361
O          -1.33793371915873   -0.14137636733583   -2.78527994001017
H          -1.60011758417119    0.43469918599125   -2.01408711886386
H          -0.58815817912525    0.30059440300568   -3.18838407912281
O           1.92403979674115    2.74690837154246    1.94882741771179
H           2.38235606741092    3.51029246987117    1.59040698138601
H           1.35757865860936    2.40028129759873    1.22829936832020
H           2.68372346978621    1.19876720954297    1.73669147506688
N          -0.58591266400367   -2.04372143837177   -1.12315483216914
H          -0.91528187490651   -1.39478046484617   -1.89883529394904
H          -0.55051614060000   -3.01165920842292   -1.42228576148400
H           0.38545180156263   -1.69025224828437   -0.81958284993570
H          -1.20894772215131   -1.91398817166262   -0.29963053947129
