    23
        -45.37533081  Gyration_radius:  2.41337605125 Dipole_moment: 3.574
 S          -1.25193152352095   -0.59580341562159    0.74346947958859
O          -1.90789855245116   -0.00839879185894   -0.41971916327195
O          -0.43973113968889    0.39168456360079    1.45701953907982
O          -2.39089608061327   -1.05729728883783    1.70456649187461
O          -0.45880644908774   -1.75805594713100    0.37396983460891
O           1.88521855031489    0.87218975381347    0.24338337979313
H           2.03207084521556    0.04500620958542   -0.23397048756819
H           1.08021747955143    0.72313408023680    0.78306043489333
O           1.42762681766120   -1.45229346029498   -1.32282452412203
H           0.72306758093955   -1.62402542920673   -0.63116463327707
H           1.80721165434157   -2.30833396586490   -1.52620044325673
O           0.88696255518526    2.57629584313789   -1.46543294590045
H           1.41160367577627    2.04020630568066   -0.80754370366158
H           0.28411025692924    3.10446799758890   -0.93858284882990
O          -0.66957211186699   -0.92191597180332    3.71005205791653
H          -0.33522478850666   -0.35859374128357    2.98131063293750
H          -0.88800990226299   -0.32931826958456    4.43284570111685
H          -1.91707617470707   -1.23308089514538    2.54191539790668
N          -0.25775004177926    0.37762456305597   -2.36136661354239
H           0.46307620159452   -0.35733453268418   -2.20828089410051
H          -1.01470489495198    0.21234249912133   -1.61264931520926
H           0.17745741098937    1.32417190720715   -2.14734823799670
H          -0.64702137905716    0.33732798629006   -3.29650914898146
