    23
        -45.37533084  Gyration_radius:  2.4133824986 Dipole_moment: 3.574
 S           1.00715456789952   -0.44792949664052    1.12290760386442
O          -0.14595091213213    0.06163953880771    1.84885685159826
O           0.72190307655523   -1.74203280586800    0.51285657015014
O           1.47589952937237    0.52134734280414    0.13062281253623
O           2.16719717413411   -0.68650669094818    2.13849865247536
O          -0.50959167224403    1.52308636072625   -1.34017715955407
H          -1.26305820188139    1.42846633242307   -0.74266602536428
H           0.27376480446325    1.24861333232608   -0.81821466253941
O          -2.32069501369850    0.44160059316205    0.56150587549600
H          -3.00758104749174    0.70067170650576    1.17736923745464
H          -1.48726103370303    0.34195975691603    1.10901612429724
O          -0.58771603618030   -0.49403108894045   -2.99712176857286
H          -0.58790724638315    0.37874195299346   -2.51370131104928
H           0.33600956531288   -0.69093518988323   -3.16430306234976
O           2.77862330468689    1.88137089859793    1.94922168320181
H           2.46676000525974    0.22017732335237    2.35016998600938
H           3.66397833629287    2.09778274060187    1.64823921248040
H           2.26874802225221    1.62856637120609    1.15148113711313
N          -1.47639949280984   -1.70632729497176   -0.83189770609954
H          -1.19036523113489   -1.33581525349685   -1.78688177977392
H          -0.56930618053533   -1.81195482216989   -0.26002764855551
H          -2.03633721487494   -0.97349107294389   -0.34962601382210
H          -1.97786911316172   -2.58500053455820   -0.89612860899464
