    23
        -45.37647191  Gyration_radius:  2.33752762606 Dipole_moment: 3.449
 S          -0.35135987477183    0.94453396270263    0.15525962053577
O          -1.61566122728097    1.01202349538293   -0.57436930492423
O          -0.23066286503954   -0.31024662603204    0.88321905376480
O           0.80239952790646    1.16319381980531   -0.70889576406126
O          -0.33291586067413    2.11527986593762    1.19465639388834
O           2.37523205627028    0.32909158955914    1.48818790093081
H           2.50764797664269    1.02762450039388    0.84198470508063
H           1.41251415142500    0.23710651368533    1.54441943626024
O          -1.49138271607643   -1.44132610340503   -1.54659131755688
H          -1.64709688472937   -0.50338622068634   -1.29499555196204
H          -1.68394693805724   -1.94212759428804   -0.74962169260035
O           1.73399912505379   -2.19814940368065    0.64559741990665
H           2.36864424374532   -1.56451988215570    1.02257293059538
H           0.87808892128973   -1.83876406157978    0.93688927931087
O          -2.96940936149369    2.13256597916658    1.37773916969721
H          -2.73751693609567    1.63326737140910    0.56816984277978
H          -1.25442827383079    2.21515473442748    1.51652649391267
H          -3.40001630868246    2.93943762487441    1.08617352124315
N           1.15195036853978   -1.20728192517864   -1.71319032391603
H           1.52276923422944   -1.74048126861646   -0.86693543003564
H           1.68539050743124   -1.37189782444846   -2.55947363168667
H           0.13094913603929   -1.44759295325944   -1.82205104146502
H           1.14481198815221   -0.18350560402677   -1.42527168967737
