    23
        -45.37647183  Gyration_radius:  2.33770302538 Dipole_moment: 3.444
 S          -0.32049707067172    0.85998567609226    0.44741345967265
O           0.34866620606337    0.89162824592188    1.74616243356534
O          -0.82663730648428   -0.47181499994308    0.14911938868722
O          -1.53801694944380    1.84220556398548    0.50981407493382
O           0.53069903542178    1.35117292845196   -0.62957092248313
O          -0.21900176594049   -2.05219620417219   -1.99966849717013
H          -0.67602212647907   -1.41659828068176   -2.57714489894726
H          -0.59250510523059   -1.84930541262169   -1.12457529155733
O          -1.44651919626176    0.36506816551553   -2.39592307318152
H          -1.51403394263526    0.15251564905668   -1.45309933339993
H          -0.92338377062040    1.17051192722365   -2.41900505446902
O           1.71887115010923   -1.33937441676812    1.39495633060462
H           1.01130764877674   -1.98210083455150    1.49134597043632
H           1.30988543771131   -0.47980691674242    1.64242038662088
O          -1.80389731178185    1.50993176394933    3.11841623589156
H          -1.90083790510915    1.77679212143833    1.41907253144750
H          -0.91581310866031    1.17964378557018    2.87206635876008
H          -1.66391453764776    2.29460116400761    3.65334736294143
N           1.92311421925875   -0.76860365408746   -1.19381324881188
H           1.18886213186746   -1.38363891137220   -1.66338880748225
H           2.80069027949367   -0.72992561155535   -1.70000039763340
H           1.46939122824146    0.18716685155375   -1.08584567092980
H           2.03959277009661   -1.10785859031760   -0.20209937749289
