    23
        -45.37156697  Gyration_radius:  2.50099295644 Dipole_moment: 5.866
 S          -0.89060060856613    0.20765531896326    0.55691333188671
O           0.06899536616580    0.59095916153822    1.59471803373550
O          -2.26450259416840    0.34514365338897    0.95512785363485
O          -0.61052849940110    1.19425117993154   -0.63413061885842
O          -0.57866890975541   -1.13792464873929    0.03983003099873
O           1.95479217256378    1.89749671487247    0.23227339739961
H           1.46350745247069    2.17821071744289   -0.54475687288869
H           1.26427367846240    1.54258741001701    0.83068417114672
O          -4.08938401372065   -0.10368442985840   -0.90316286870243
H          -4.64651603432809    0.67634582923468   -0.91131209582043
H          -3.49992911035655   -0.00353098387572   -0.12283514509613
O           3.54561348568956   -0.17866977996573   -0.08112548117151
H           4.40809563590371    0.05937033081348    0.26242569162707
H           3.00578376537030    0.65498217715767   -0.06664253405174
O          -1.80833012913489   -0.36603642600344   -2.27598126257293
H          -1.42687455406315   -1.06548271818670   -1.72652231284387
H          -2.74560358664213   -0.30379275449313   -1.98903453500899
H          -1.06532223127569    0.74516510942616   -1.40604187653295
N           1.62333913938052   -1.42640686690926    1.25566677242964
H           1.80725479770773   -2.23061415670575    1.84469057433968
H           1.22878422471575   -0.60464646174619    1.77491606307910
H           2.47017081251936   -1.10341295903676    0.71761425771551
H           0.78564976046630   -1.56796542726311    0.59668542555662
