    23
        -45.36556183  Gyration_radius:  2.44549731791 Dipole_moment: 7.158
 S          -0.61101088062223    0.97623396312278    0.47231773947067
O          -1.69785331859425    1.67770445338271   -0.17741587309668
O          -0.12133144329652   -0.12872212127823   -0.56012734864190
O           0.57779609261510    1.82371305578940    0.63254915426017
O          -0.98652705824675    0.29285605449706    1.69023012562259
O           1.21056351146193   -0.97298861178089    2.41267378823721
H           1.32846654997184   -0.80725540941494    3.34976984161761
H           0.42997576029268   -0.43862304084023    2.14601433257304
O          -1.04821879455861    1.78024573883456   -2.66207210515489
H          -1.41406711383473    1.84346917142885   -1.73474978769764
H          -1.33435378163258    0.92069310959960   -2.97956399333672
O           0.34677478011546   -3.34244177568093    1.48453336911382
H           1.01669684068570   -3.65568579891612    0.87532470568824
H           0.71186455786540   -2.52698113474398    1.89460277873955
O          -1.65246604957148   -1.97464249702289    0.32120256691462
H          -1.86686546895974   -1.35356220662755    1.03200339279643
H          -0.70305019816290   -0.92542796442934   -0.36124740164665
H          -1.03079258749258   -2.62168537594651    0.72697345590448
N           1.40377813468445    1.89683728301711   -1.74302689385232
H           1.94573135827821    2.71425595128815   -2.00322985281387
H           1.92093348244096    1.03869416137212   -1.90670383912296
H           1.11341108555678    1.92077879441206   -0.66080967579290
H           0.46054455100986    1.86253419995514   -2.24924845977146
