    23
        -45.37019759  Gyration_radius:  2.3446381923 Dipole_moment: 3.223
 S          -0.32375361663189   -0.32712551441720    1.19910325341327
O           1.15682518010943    0.06781714902675    1.56972597872213
O          -1.08151733083088   -0.46311201784440    2.41530288675788
O          -0.82131102045413    0.75288672470587    0.33864623615144
O          -0.19134254084695   -1.55932228705637    0.42933503390054
O          -2.52086244579239    0.16593056759943   -1.60698008045667
H          -3.30054384542836   -0.23710398487614   -1.22262800361387
H          -1.98838212745914    0.49768845990405   -0.84770016025304
O           2.31624359546026   -1.24370405102745   -0.84835336370104
H           1.72241403607842   -1.47000840242336   -0.12210055833465
H           2.52666574695139   -0.31465533969247   -0.72480539738215
O           0.98566099532078    1.34514058009426   -1.44835550846039
H           0.77830321115226    2.20381294209737   -1.82045579616821
H           0.37145514908142    1.22257826723706   -0.68446615880203
O           0.21800420442151    1.46027615434681    3.59710487146463
H          -0.49035886576602    0.84093848637213    3.31645771610844
H           0.46561414004981    1.20000915717336    4.48732165071750
H           1.05002279391396    0.71548649504127    2.29569258024454
N          -0.17592613106139   -0.98852584090971   -2.10704718604391
H          -0.14056360987485   -1.35333710600418   -1.10063504436982
H           0.45352173163319   -0.15267855826257   -2.10070775729522
H           0.14647236920385   -1.69366502975318   -2.76082832910671
H          -1.15664159922547   -0.66932682133200   -2.25362685349541
