    23
        -45.37719447  Gyration_radius:  2.33922368558 Dipole_moment: 4.160
 S          -0.39943729522313   -0.44895563907335    0.97772247814289
O           0.87578553489810   -0.15348006598239    0.31815276622149
O          -0.16388064781762   -0.48009544081715    2.50697227559122
O          -1.37762204515498    0.59935676347977    0.68280020233668
O          -0.88305334530699   -1.77223876229951    0.60882258047712
O           0.47010561214674    2.48183417295135    0.50504532535279
H          -0.41656420723045    2.07519833162487    0.52079591524220
H           1.03759746344145    1.72467506828923    0.28992154775508
O          -1.31399819772768    0.70881869587249   -1.93510029804295
H          -1.48100846320326    0.70137069626526   -0.96127350637505
H          -0.62903169949200    1.36763731715011   -2.07339608750138
O           2.00164622249250   -1.60025516158841   -1.55095512505675
H           1.68917433739829   -0.99430545319624   -0.83470252510859
H           2.54487360997454   -2.25790095995014   -1.11361954639320
O           0.51259393114375    1.96810289394195    3.10552166996490
H           0.61886434035882    2.33595324668660    2.19366612719962
H          -0.25006007030193    2.40703492754207    3.48847300557022
H           0.14497763042260    0.42297432588639    2.79285437129904
N          -0.60681908004483   -1.84390454898357   -1.94176142051806
H          -0.91717355807796   -0.86034868710041   -2.15990391695951
H           0.43761461729623   -1.89449714820183   -2.02780009965719
H          -0.80552265497584   -1.95087052499000   -0.88842204127473
H          -1.08906202502539   -2.53610404750422   -2.50381369825218
