    23
        -45.37026559  Gyration_radius:  2.27644868067 Dipole_moment: 5.650
 S           0.77511745968854   -0.99026742590079   -0.46339392610232
O           0.29828439614650   -0.90654818896827    0.92005254506024
O           2.30978236131490   -1.03499946629564   -0.45620884860035
O           0.29315309035661   -2.20663822553714   -1.11000001890434
O           0.33711289202619    0.19573977329445   -1.21404174147723
O          -1.00671744608705    2.02965842634189    0.25402669569640
H          -1.68498822537027    1.42203635096296    0.56717726432214
H          -0.44954639437198    1.50817641843733   -0.35296429358274
O          -2.27685517779560   -0.60915393917843    0.74567160108769
H          -1.29805116207887   -0.73027329659555    0.88090780147161
H          -2.69871541258797   -1.07682548028131    1.46837143788770
O           1.01705010560630    1.44619618778881    1.99295427410760
H           0.76631106023721    0.52095113417088    1.80841826106975
H           0.34037133554091    1.96882409419792    1.52292064736858
O           3.12300128778475    1.20511423362901    0.47809037091541
H           2.35332637023775    1.43410743030545    1.07485560965146
H           3.87285481308603    1.04987044533050    1.05651080240160
H           2.65843691701843   -0.13282821798449   -0.15242749288980
N          -1.80734965181099   -1.02444782130433   -1.84503871897648
H          -2.33184152411118   -0.91169060838899   -0.95100220906910
H          -1.07064128241454   -1.79708538195311   -1.67335190428220
H          -2.39418744650204   -1.13906375687453   -2.66401879809784
H          -1.12590835592652   -0.22085267518928   -1.88750933905775
