    23
        -45.37026567  Gyration_radius:  2.2764098605 Dipole_moment: 5.651
 S          -1.20351256747749    0.54555683990984   -0.22150620949168
O          -2.32978243302882   -0.12789277150529   -0.86039041761745
O          -0.07121794212429    0.66549715112577   -1.14451660397055
O          -1.66306597742757    1.95327401721113    0.18395512812990
O          -0.78806840659293   -0.18532428579768    0.98466772536522
O           1.83013733054884   -0.86646042449581    1.04741703841821
H           1.82419754792991   -1.34574027543149    0.21223431928159
H           0.90703827045797   -0.58930869758560    1.19560485834139
O           2.04617289502862    1.70061089747029    0.13973598601792
H           1.36592571509585    1.41873355309892   -0.50122657354884
H           2.27141064458174    0.87956617968052    0.61633894926840
O           0.73806741488735   -1.76745932772865   -1.56438233985456
H           0.47231938204544   -0.81461209307658   -1.45274177511541
H           1.02913612565424   -1.85094955228444   -2.47395655875228
O           0.25693868400650    3.02038257580935    1.49832665032399
H           0.33390968472870    3.94340097743503    1.24714380358307
H          -0.94543231518548    2.37311314382234    0.76396544877112
H           1.03533558195311    2.55191868411994    1.07937963508328
N          -1.43619114018934   -2.37327460482855   -0.14701860475058
H          -0.60385280205563   -2.49459520395545   -0.76322138261507
H          -2.05000261823995   -1.61086570171665   -0.60725113902472
H          -1.90541763666251   -3.23783753830450    0.09918785413744
H          -1.11404546793470   -1.78773354297466    0.66825421801913
