    23
        -45.37026566  Gyration_radius:  2.27641239916 Dipole_moment: 5.650
 S           0.70644571866777   -1.11878940759028   -0.21054853827683
O           0.49815582577499   -0.02701788700365   -1.17300640140140
O          -0.04388719589752   -0.84721745961114    1.01894438484040
O           0.19220147249944   -2.42825557169766   -0.82545176245367
O           2.12915980133014   -1.28303051699594    0.07066690037791
O           0.76664579249627    1.48739379763180    1.82096602569461
H           0.79609968722649    1.49948531647676    2.77909064711140
H           0.42091697585529    0.58734449388477    1.57321063317378
O          -1.22153101989996    1.89299798495619   -0.34891615512110
H          -0.67610488033127    1.22398134231385   -0.80258114689059
H          -0.75255471897833    2.09750199581735    0.46687535118134
O          -2.60952579083925   -0.32831761685689    0.42539887224289
H          -1.75958785719827   -0.58874769057818    0.82889133743814
H          -2.44389219964386    0.57518430997525    0.09639727021565
O          -2.24126216510363   -2.03019937808769   -1.51288249576997
H          -2.50107670902542   -1.33844090698091   -0.83846707016969
H          -0.74999371119642   -2.27674353582112   -1.16748411896993
H          -2.75745993313703   -2.81228230082155   -1.30581880176824
N           2.50047208165530    1.19636514619192   -0.18217004177754
H           2.67306391573146    0.14604585631450    0.00977463665124
H           3.29755185537440    1.72781637474048   -0.51455503808162
H           1.72514838571931    1.06120898862132   -0.88357290196533
H           2.05101466892517    1.58371669511906    0.67523842372287
