    23
        -45.37758410  Gyration_radius:  2.31481659662 Dipole_moment: 5.932
 S           0.55671895589570    1.58863132467883    0.53264559208789
O           1.17183331417243    0.54452760903396   -0.31105670302002
O           0.53116353612000    2.89708328344194   -0.30900238605696
O          -0.85034173233186    1.21408481171080    0.78681152349167
O           1.30020302510710    1.80507414812945    1.73804143626733
O          -0.20470434124231   -0.41055699093917   -2.24135181471012
H           0.34806785688803   -0.02605008965583   -1.49919129761522
H           0.37984665083997   -0.47181115065726   -2.99885155733421
O          -0.80494086149797   -2.56209550677849   -0.73481379440124
H          -0.07283236089574   -3.15232165705832   -0.92317393167585
H          -0.71550677169050   -1.80510179351336   -1.35518876729498
O           1.98608216303132   -0.79325588817737    1.82358064760041
H           2.01839320577908    0.05644185080119    2.29080220211387
H           1.97922696121262   -0.49835786267451    0.89265077042110
O          -1.52042193423379    1.98634559694783   -1.67768836570512
H          -1.23883194208158    1.17723535552818   -2.13332692075620
H          -1.71162080978185    1.70472958373101   -0.76798895013522
H          -0.18740761275750    2.75307280155584   -0.97127688981528
N          -0.61059061539051   -1.22604179290614    1.59309748903283
H          -0.83315691460342   -0.21478849433938    1.30921255471598
H          -0.76082756401575   -1.83170931011993    0.74879007640021
H           0.42363924913900   -1.21084449743895    1.83274888795679
H          -1.18399145764062   -1.52429136127367    2.37453020840291
