    23
        -45.37719381  Gyration_radius:  2.33837367059 Dipole_moment: 4.151
 S          -0.66306969961705    0.80331102965410    0.48275907982596
O          -1.08649833820314    1.38855870855786    1.85143523939217
O           0.46246596757160    1.58833754145157   -0.02636499842122
O          -0.26052423170959   -0.59231506410127    0.68033694398895
O          -1.83158199472280    0.89109709362338   -0.38191194377599
O          -1.23935410649332   -2.66294022845205   -0.58864608267773
H          -2.00583054442811   -2.96287874171185   -0.09736532712780
H          -0.81939299953396   -1.96585002984281   -0.02724618217401
O           2.25598331410327    0.11011329230433    1.23607865076056
H           1.54952190925920   -0.55297036543965    1.17830979651400
H           1.90103852464697    0.83553399443299    0.68931496985906
O           1.22299648191704    0.18012938113640   -2.10163043976635
H           0.97815448293443    0.82879616290704   -1.39772319841571
H           1.86147684602425   -0.41121752565668   -1.69522287728103
O           1.10509539187248    1.36577785685242    3.26814245952513
H           1.46417388814590    2.25556575026212    3.28507492081751
H          -0.29700544855575    1.36413583815096    2.45843582621362
H           1.68538109790260    0.84093428608018    2.66334927406084
N          -1.27284027802855   -0.67385996295069   -2.33793903633951
H          -1.34295175838542   -1.61067221714814   -1.87103535009122
H          -1.78030995080087   -0.62377309958952   -3.21403142530150
H          -1.63314447816513    0.03044033344456   -1.60691338532933
H          -0.25378405573876   -0.42625404398664   -2.44720689425548
