    23
        -45.37758416  Gyration_radius:  2.31478968094 Dipole_moment: 5.929
 S          -0.25574635386085    1.35994998836926    1.09595908087034
O          -0.17108666265075    1.63134285747771   -0.35450587605463
O          -0.27324557132960   -0.10285057567474    1.29609269740956
O           0.79589837840304    1.98645632256589    1.84042441041757
O          -1.63264138079997    1.90161930634208    1.57748939192069
O           2.36526845348837   -0.16996661020273    1.50910679120399
H           1.44384939954999   -0.46857186280203    1.63279076972518
H           2.31561425250944    0.73939346218833    1.84398110024670
O           0.53685672196617   -2.15150322014948   -1.68389877903333
H           0.85256586740180   -2.92864808701401   -1.21889657456556
H          -0.34674060670398   -1.94430858403536   -1.30664885680430
O          -1.68403371926389   -1.52023443891051   -0.29559104556938
H          -2.14597978586417   -2.16729957633574    0.24037774343755
H          -1.14523949236160   -0.96880596251214    0.34462919833144
O          -2.75657828874463    1.03505480797618   -0.63555198239637
H          -2.65056488439848    0.07101438394113   -0.66610053584030
H          -2.26787221665141    1.62965337364243    0.87169115694335
H          -1.90338164017074    1.38778924013846   -0.93740030309183
N           1.81099635639642    0.13439904406777   -1.05665518895542
H           1.00326232820317    0.81957049945723   -0.88122232304209
H           1.39325860464795   -0.76429129502887   -1.40330895628217
H           2.48057870656718    0.51472258627439   -1.71649892079427
H           2.23496151366695   -0.02448564975509   -0.09626299804368
