    23
        -45.36155541  Gyration_radius:  2.49932120433 Dipole_moment: 4.638
 S           0.89932109903468    0.25397076686211   -0.69331629778116
O           1.79533595976857   -0.64025115902271    0.18275557069812
O           1.84344558075194    0.61997895350776   -1.84307249265064
O          -0.20192327253851   -0.52446563282990   -1.20008524695879
O           0.52766519671373    1.44513923082678    0.01720667825373
O          -3.02826721236866    0.94165783345267    1.73428130684442
H          -2.81560828063362    1.03777187432376    0.77877930061103
H          -3.61757231238396    1.66529071599344    1.95232578033154
O          -2.11536725129980    1.35974419639858   -0.76037759308600
H          -1.75015561209038    0.51286934939063   -1.05745562473604
H          -1.32901084568821    1.86487867111661   -0.51616669743327
O          -0.46493918756312    1.04045268262172    2.55254898921010
H          -1.43052070157649    0.96771228245716    2.38469697565794
H          -0.08504251898230    1.39506671599716    1.73277118149867
O           0.64929048830123   -1.26822471303127    2.33533642406122
H           1.30508705908873   -1.33146809088256    3.03364376983139
H           0.13888843889336   -0.41413657818317    2.50943246081244
H           1.31908849777042   -0.94754585592292    1.04913540535119
N           1.70334278711930   -1.69657713478219   -2.91326866068833
H           0.78752906342960   -1.77271130802923   -2.47802523226453
H           1.93046197546711   -0.25185161810814   -2.38642837261671
H           2.31847432823296   -2.38934815403795   -2.50819675648380
H           1.62047672057995   -1.86795302814279   -3.90652087846212
