    23
        -45.36155542  Gyration_radius:  2.4991912978 Dipole_moment: 4.634
 S           0.78597303349814    0.05259016684362    0.85663768089130
O          -0.37323129403810   -0.79185229488682    0.99390816737393
O           0.51603092034596    1.39053305994364    0.41073280063117
O           1.54738616249542    0.10181909337658    2.18511918465116
O           1.80720959057153   -0.63030863516730   -0.07111496375680
O          -2.74469898697920    1.41891836837048   -1.87321336541704
H          -2.67591157712770    1.27633401532829   -0.90245568482005
H          -3.30214744294890    2.18921746148521   -1.99279910059133
O          -0.08960224089067    1.63928603088750   -2.26296665426030
H          -1.06879607118470    1.55589356802250   -2.25930690122960
H           0.16288558875702    1.77438773162202   -1.33552561105151
O          -2.21252430021520    1.19840806102317    0.75348606315301
H          -1.88846370716017    0.29483674204932    0.88554387344083
H          -1.40278007417329    1.72510202003231    0.75579580109056
O           0.99661244304993   -0.68489155767983   -2.45461734948376
H           1.74905755633252   -0.59661986531061   -3.04430997364543
H           1.46635440915401   -0.70465031369680   -1.04595481165080
H           0.51159569949366    0.20051906236779   -2.48777445873027
N           1.26341836614660   -2.39867627182047    2.62959550831666
H           0.42290485211975   -2.33995263023837    2.06033239774375
H           1.55786245057563   -0.87761646974679    2.50726396991153
H           1.03489934008419   -2.80112138341874    3.52881521151748
H           1.93596528208840   -2.99215597937681    2.16280822591086
