    23
        -45.36155537  Gyration_radius:  2.49926385862 Dipole_moment: 4.634
 S           0.17586197945203    0.47958609308667    1.04565666290137
O           0.11078591836956    0.96632862582332    2.49689101944233
O          -1.15279586171703    0.43195161454320    0.49078305983959
O           0.97196606247533    1.60838323938461    0.36603094632586
O           0.90490237563035   -0.75616411181670    0.98864614060247
O           1.87520648519695   -1.43561173694783   -1.49609294017026
H           1.14013346896271   -1.97580886561619   -1.86171769795104
H           1.68598758076867   -1.34738486128503   -0.54815678743569
O          -0.29457908078369   -2.88889459335503   -2.15135816535737
H          -0.22186103115179   -3.84307837505232   -2.20286699060806
H          -0.78129903900794   -2.69402608202305   -1.31913530368574
O          -1.28025522634552   -2.27752090797644    0.27481626464139
H          -0.43227337937843   -2.19007925489616    0.72913425054236
H          -1.59345625692005   -1.36262292254395    0.21397789481840
O           1.49704851591126    1.05173982387582   -2.03295180568465
H           1.15263626965811    1.41586248548099   -0.63505076626376
H           2.35179913652413    1.42390219581769   -2.26237182548434
H           1.64128711245203    0.05575808006766   -1.94664098700615
N          -1.62216024868664    2.77415224455929    1.98526328930508
H          -0.55195758752984    1.75538095427733    2.46982299667012
H          -1.24110117487113    3.63568969997807    1.61783524275453
H          -1.91480446080558    2.18485776746153    1.21004817708516
H          -2.42107152820041    2.98759889716025    2.56743733471491
