    23
        -45.36155541  Gyration_radius:  2.49927414714 Dipole_moment: 4.637
 S          -0.97791803674991   -0.33752781331870    0.53282798701750
O          -1.65375565859817   -0.46963345698610   -0.84402032939727
O          -0.74586586071492    1.04359240859994    0.84980613665234
O          -2.05143793989414   -0.90196605979966    1.46877503876797
O           0.19083140296987   -1.17897036097996    0.57335885814864
O           0.48610954923082    2.51281609631535   -1.12533739629860
H          -0.00538201420705    2.19921583828740   -0.34934118645165
H           1.43574246296164    2.41013159028355   -0.89407858112905
O           2.96422679798825    2.05963381654111   -0.17507218627636
H           2.66785574019265    1.47556378073333    0.55878245245894
H           3.44814632977533    2.77921650140077    0.23293970015618
O           1.81192247198866    0.63447995644571    1.79276007537946
H           1.56224191291440   -0.21420197154499    1.39746060194662
H           0.97695973411967    1.11958499845411    1.81790265179702
O          -0.26494493333967    0.58842293720444   -2.65868711186971
H           0.11649777172092    1.36984778643294   -2.14475067788620
H          -1.07136151676346   -0.08298415525738   -1.60765052995327
H          -0.84853378828719    0.96661945840829   -3.32058273030931
N          -1.62876343337736   -3.32148537835304    0.76305608378341
H          -1.59438653019342   -4.10835284545627    1.39743377231760
H          -0.68247889394434   -3.02438850685383    0.53895642928192
H          -2.09538302763667   -3.60330513306100   -0.08858174070405
H          -2.04032253014862   -1.91630949749411    1.28404267257092
