    23
        -45.38023206  Gyration_radius:  2.3265358625 Dipole_moment: 3.134
 S           0.34179308090802    1.29460190820320    0.49695616274548
O          -0.47977629961486    0.27354233410884    1.14634167361336
O           0.13229608026175    2.63617233776262    1.26316462643411
O           1.74310245153276    0.96954716548104    0.54186591282935
O          -0.13961321720617    1.50384848605839   -0.88375555896298
O           2.27438748536101   -1.41973955652381   -0.46938856614307
H           1.88760588386052   -1.89084792108848    0.29529906552577
H           2.33915270506204   -0.49475590427531   -0.14857823627234
O           0.77654940362093   -1.98933096272410    1.71185075218359
H           0.34149421730507   -1.11492523557647    1.58459008203992
H           1.25240624705192   -1.92365903222582    2.54086069064525
O          -1.63427794650694   -1.83147790406866   -0.02384293535003
H          -1.20909846349539   -2.49952646141302    0.52380009026748
H          -1.47475917895811   -0.99064352601000    0.45308769115886
O          -2.13534345297189    2.98859462435741   -0.05498085878093
H          -2.18930281269997    3.80799129348134   -0.55201714008816
H          -1.56113887953282    2.38573953433480   -0.57021867483862
H          -0.78663863237346    2.88576658242597    1.03972029340015
N           0.09943873302014   -0.93162926912106   -1.81669945632722
H           1.04917484477639   -1.22511758753741   -1.40305136152832
H          -0.65883041733781   -1.42450340143738   -1.27040852418172
H          -0.00497063459673    0.09738971773292   -1.59129309246563
H           0.03634880253441   -1.10703724194310   -2.81330263590406
