    23
        -45.38023201  Gyration_radius:  2.32664178512 Dipole_moment: 3.132
 S          -0.94649481211222   -0.31398260486102   -1.02237876658140
O          -0.29217208809245   -1.55987598428762   -1.32420688575719
O          -0.18568136007945    0.85131025488272   -1.51760320915384
O          -2.32524354215241   -0.30360190183500   -1.75028178951937
O          -1.19398200630107   -0.15687394506501    0.41054784938187
O           0.40017185568319    1.04165366604518    2.18703385445567
H          -0.35467801146077    0.80860897079419    1.60756820298191
H           0.49814615449597    0.27959708560683    2.76733730866918
O           1.95270744969590   -1.89577339488912    0.04013647434979
H           1.23657708125784   -1.95294948812858   -0.62816972755548
H           1.48222444965581   -2.06231316739713    0.88107464511114
O           0.05049226067450   -1.90385343144791    1.96565641269306
H          -0.48127656134734   -1.31887022495143    1.37819413198845
H          -0.44053886767406   -2.72434710045653    2.02744521243402
O          -2.34383351125164    2.33814350056625   -1.59313464076731
H          -1.41831151625643    2.02468701142988   -1.53133774903703
H          -2.42471502055223    2.79071093257061   -2.43578330087338
H          -2.62617695079003    0.62232491396648   -1.65648255634218
N           1.91664628746686    0.70856830237202    0.03768233234617
H           2.74516883441566    1.25505006437501   -0.16940338449359
H           2.10822925438948   -0.35095413302280    0.03875764219118
H           1.48740996004059    0.96188877831482    0.96924984050699
H           1.15533067029455    0.86085189541853   -0.68190189702829
