    23
        -45.37177392  Gyration_radius:  2.40174325429 Dipole_moment: 3.442
 S          -0.74695142033477    0.76321030938580    0.50398690536540
O          -2.13533131473056    1.02391560552531    1.16685548429719
O          -0.99215928425057    0.63651456194503   -0.92714682698633
O           0.12077541299486    1.90026801469820    0.81392365157066
O          -0.19367236424029   -0.46905543956827    1.04869241374716
O           2.35924478438132    0.59823400081525    0.34749793585992
H           1.62910308139983    1.23797289455246    0.51236413730309
H           2.24926181022359   -0.05688408758483    1.04314949978391
O          -1.34558234995837   -1.59007913013904   -2.64220850545544
H          -1.14802519852399   -2.22666089827242   -1.94707483298150
H          -1.59157108859279   -0.77651600367552   -2.18525319570509
O           0.15679737426389   -2.60569743071509   -0.39153966968461
H           0.37355656031037   -3.34133614294160    0.18241474666382
H          -0.06722495159771   -1.84577667459501    0.20428788217541
O          -0.98155720232322    2.33492973175331    3.14999340618180
H          -0.34931689957359    2.31063633202106    2.40193150901723
H          -1.24858683520811    3.25137747635237    3.25095902174186
H          -1.92706498549109    1.40533578509088    2.04561720382278
N           1.19866627437932   -0.51622357911678   -1.74738063297636
H           1.50807273383995   -0.44441035602683   -2.71107678750137
H           1.86328359697701   -0.09379564869039   -1.04024648318832
H           0.27975384326172    0.00255936336004   -1.59601623850309
H           0.98852842279291   -1.49851866417372   -1.48373064454822
