    23
        -45.37332537  Gyration_radius:  2.34650099588 Dipole_moment: 5.420
 S          -0.82826204226587    0.21145715629856   -0.25675691673104
O          -0.46685610813310    1.59249693160737   -0.49121190485534
O          -2.30607986060711    0.13965154685928    0.21624389696549
O          -0.77044558837415   -0.58728047970665   -1.49452442950434
O          -0.00560110706909   -0.41625921577324    0.77624190192032
O          -0.81002294805085    3.06311243476485    1.67979688480922
H          -0.59631023197766    2.58804590008614    0.84671559660475
H          -1.41837062157732    3.76280698805073    1.43571685851592
O           2.38312653508610   -1.08711869703562   -0.10627963645974
H           2.41086576570571   -0.44227782501753   -0.84772852775816
H           1.66814327131344   -0.74056247016069    0.47103440750708
O           1.61856834188331    0.59549789464959   -2.03969287880757
H           0.73629882640204    0.19658879563864   -2.11514834104969
H           1.44028427332337    1.46050142323160   -1.65637137763440
O          -1.64421724268874    0.70015131736460    2.63243377428368
H          -0.84869380412030    0.19633535710361    2.40598200140622
H          -1.38688197867644    1.64094241758650    2.52452969474797
H          -2.25912697641637    0.35724740581277    1.19333633838091
N           0.61580798580027   -2.69280978558506   -1.04605113262190
H           0.82248991724045   -3.23505541101494   -1.87866424675872
H           1.49596732028694   -2.15376699845002   -0.66160889007172
H          -0.06633271862276   -1.87495171242205   -1.27085562800641
H           0.21564898152678   -3.27475295389857   -0.31713743491065
