    23
        -45.36554681  Gyration_radius:  2.64931052975 Dipole_moment: 7.614
 S           0.91724937924296    0.65453883441484    0.60537289957916
O          -0.05827396607973    1.72323237956243    0.36550574324559
O           1.72736130830037    1.02295363033888    1.87714446601775
O           0.21804744774261   -0.61307715732944    0.87089746912169
O           1.84332401934484    0.52458826613396   -0.50503170296361
O          -1.33226666284485    1.20079452877960   -1.88485837624371
H          -1.15913838434796    1.95073983027216   -2.45652471557193
H          -0.94661214744266    1.44427695683211   -1.00835316665904
O           0.49471640045486   -3.45640623690179   -3.00386807148288
H          -0.05500337419686   -4.21617114864614   -2.80019272931416
H           1.40353349506831   -3.76120077784583   -3.05433233130189
O          -1.53627817038215    2.15442045368673    2.52030146929170
H          -1.06847164327091    2.01998382726942    1.66614015967231
H          -1.31582974898217    3.04389016290345    2.80195788330152
O          -0.07800829147761    0.09814061348116    3.46016680682380
H          -0.74234753101098    0.80933772873926    3.34091162508079
H          -0.21776419778927   -0.50236493633877    2.71097177822872
H           1.15711575058438    0.72019625699123    2.64651411894700
N           0.13747401432075   -1.00319406134768   -1.67664014271757
H          -0.56569235936305   -0.30850678896007   -2.01642925754966
H          -0.07100879191302   -1.17216782392051   -0.65802703248791
H           0.20763007502449   -1.85936109515299   -2.24091672294949
H           1.04024335902260   -0.47464346295787   -1.56071015008503
