    23
        -45.37177386  Gyration_radius:  2.4016993068 Dipole_moment: 3.441
 S          -0.46941919046537    0.84259739799545    0.68141140029186
O           0.60989842670942    1.82802814970595    0.75792618489401
O          -1.58637644256083    1.27495822067140    1.68165643317254
O          -1.08868866002009    0.81121741982439   -0.63761720130070
O           0.01246676918972   -0.47800102501544    1.06223135414735
O          -2.20047431071374   -1.26920174189947   -2.20609995926981
H          -2.19614680957775   -0.44765142960665   -1.69992314629752
H          -1.92876617616568   -1.95500668501327   -1.58693135652867
O          -0.34346483600578   -2.58257264626016   -0.42345874884346
H          -0.29002209927922   -1.82308237130106    0.21131617217499
H          -0.10414251205640   -3.36525208081965    0.07430568499898
O           2.43206355619843    0.23538126840136   -0.27485435890004
H           2.40741914228978   -0.42459022421436    0.42448681557351
H           1.87307533094496    0.96666544394517    0.07492447426563
O           0.22104305491702    2.32095574320638    3.30118577435065
H          -1.10523905495131    1.58509066391324    2.47748610238590
H           0.62940070458357    2.23623257790634    2.41464718221575
H           0.13075429547191    3.26145546063506    3.47049848330073
N           0.61987111931691   -0.61275287194600   -1.99925671909588
H           0.67970192794282   -0.54682557330828   -3.01004419035820
H          -0.14084140205627    0.02705564160853   -1.61387561205121
H           0.33884346014587   -1.56421948834793   -1.69255918374523
H           1.49904371614139   -0.32048187007854   -1.48745557537918
