    23
        -45.36554696  Gyration_radius:  2.64973060081 Dipole_moment: 7.620
 S          -0.74934651615951    0.00975744338677    1.03492999260558
O           0.61718803814755   -0.46539385412982    0.76501329196047
O          -0.96782770118290   -0.02676112328167    2.57122254940391
O          -0.89245939427616    1.40032675111990    0.59099692038730
O          -1.74002278275997   -0.84911703442308    0.41150562748844
O           0.70831696591893    3.00047718794945    1.96599840932641
H           0.12293176690558    3.57736369254604    2.45958773033089
H           0.12730800370431    2.46884177147828    1.37748396270825
O           0.57717700307427   -3.40265076263515   -3.05299151030435
H           0.14981955618164   -4.21480179416638   -2.77175301866858
H           1.49916318779845   -3.60500118920259   -3.22581718458430
O          -0.69191096998367    1.45976588705108   -2.03891879931061
H          -1.52073992542304    1.82770832220847   -2.35006737439830
H          -0.72339399321802    1.53687120528756   -1.05438839333956
O           1.45971096007999    0.66484085777756    3.06973898498883
H          -0.07977840183848    0.22535691375830    2.96701747134619
H           1.61184721066705    0.18229222009635    2.24186224218638
H           1.39094691012752    1.60622430193528    2.80435287271351
N          -0.16635281850161   -1.10874147775804   -1.60607174242161
H          -1.03622971599642   -1.26164233873920   -1.03317617554894
H           0.50930024301550   -0.94580881009325   -0.81480933207061
H           0.08690951212641   -1.89010884557333   -2.22383478167973
H          -0.29255713841757   -0.18979933459406   -2.08788174312457
