    23
        -45.36554687  Gyration_radius:  2.65011014575 Dipole_moment: 7.644
 S          -0.75632119707001    0.53849698984901   -0.88120081193799
O          -0.45800279166276    1.70268632689560   -0.04040499296971
O          -1.93184784838688   -0.16914143919700   -0.40688790913383
O          -1.03961895371728    1.04770498497834   -2.31996827528830
O           0.41528023825154   -0.35006551417719   -0.94302120152971
O          -0.33606124936498   -4.21010764968459    1.84430794266351
H          -0.99562760103935   -4.75021287930786    1.40326534455492
H           0.49049334570233   -4.69756819182969    1.83649665403150
O          -0.13726015037389    0.87428296822503    2.44358564380900
H          -0.80317366105226    1.33680212448508    2.95532324328504
H          -0.18615571099807    1.26294743447133    1.53648029714281
O           1.49187796393391    3.15335610297264   -1.09268808288802
H           1.08774870545916    3.99379809945079   -1.31512747834321
H           0.80249370431874    2.64322032831941   -0.61205824449162
O           1.46104101267602    1.17321292388463   -2.91406987677208
H          -0.13441488223852    1.16020588671962   -2.74004992832887
H           1.68892585197165    1.96423785758543   -2.38150858979090
H           1.49549210445286    0.43247689710206   -2.28837072644620
N          -0.42484997187174   -1.46845925394909    1.22296523055722
H          -1.32436195641699   -1.19179709932756    0.75152732056178
H          -0.39014369435925   -2.44191301336346    1.55069624584056
H           0.23406935388699   -1.25466192555259    0.42951888450148
H          -0.24958264210418   -0.74950196855212    1.96118931096768
