    23
        -45.37086597  Gyration_radius:  2.35899094319 Dipole_moment: 5.765
 S           1.00836233450390    0.29316602792510    0.28102668863219
O           1.28509908502255    0.92338312006205   -1.01525679902872
O           1.99791388277634    0.56057483184887    1.28723433312620
O          -0.34793294692858    0.96725005746278    0.72489440422295
O           0.71106895724540   -1.12938865024255    0.10182128359656
O          -0.95262041784307    2.53638462990573   -1.50076784432505
H          -0.03343417564850    2.32595683808015   -1.26584182803375
H          -1.43524726668663    2.42765247456317   -0.67605302218567
O          -1.41300496639495   -1.79854785583373   -1.19932454403094
H          -1.36033886679991   -2.74575079159993   -1.33663661219851
H          -0.65391972212881   -1.56901463147678   -0.59723528845794
O           1.46400389133889   -1.64980390538462    2.63197736490689
H           1.15073743798941   -1.95930149946191    1.76965525705629
H           1.99700228388423   -0.87224854230331    2.38493263113497
O          -0.50112690536867    0.03626558195301    3.13650549379579
H          -0.49943150327133    0.62783188635529    1.64908531077504
H           0.15366968336939   -0.70757098173898    3.07176273682903
H          -0.09508924186338    0.68826515522398    3.71207366965197
N          -0.51105543622754    0.18999624636263   -2.67581858486765
H           0.37160042022848    0.36429515455977   -2.06955120915491
H          -1.04355391535345    1.06833151997059   -2.50056744518260
H          -0.28962853740595    0.06451525962043   -3.65721196511937
H          -1.00307407443033   -0.64224195585763   -2.25670404113702
