    23
        -45.37997249  Gyration_radius:  2.33276603931 Dipole_moment: 3.130
 S           0.58411665345626    0.49898889952978    0.55578277784256
O           0.89783142430861   -0.37647328572747   -0.58505006083000
O           1.27395709352418    1.76421736438064    0.47284052263365
O          -0.85122336034743    0.60771878932269    0.74615331975319
O           1.10005985180567   -0.27193103638722    1.83508386809321
O           0.01248516707395    1.64638645935866   -2.12841943334476
H           0.27109620755522    2.38307171638968   -1.56798301377095
H           0.49521696703647    0.88783907045444   -1.76164700706100
O          -2.39804301642496    0.58577004129414   -1.48033644862876
H          -2.18478931390445    0.79108582454624   -0.55409339412878
H          -1.70212402776549    1.06069209977463   -1.97729986940201
O          -1.43983150332659   -1.83591651566175    1.54400132280334
H          -1.33427386753097   -0.86757547736132    1.42065901805924
H          -0.67569287741141   -2.09922881112805    2.06149869649684
O           3.46152545783118    0.88481453988066    1.61463707880304
H           3.73761136788935    1.47745984508110    2.31759468811068
H           2.05750232230166   -0.06592196195214    1.88702886708056
H           2.84071978506133    1.39457100331911    1.05297145366877
N          -1.24310032129096   -1.73414217097651   -1.11626777082246
H          -0.27683102251518   -1.29733761120682   -1.00468774246743
H          -1.86542165853625   -0.90426114337336   -1.38628305414193
H          -1.26190882775458   -2.48670898887495   -1.79495202570302
H          -1.49888251077479   -2.04311862094735   -0.15123175338677
