    23
        -45.36288405  Gyration_radius:  2.40816479728 Dipole_moment: 7.411
 S          -0.79746917473674   -0.33482282635848   -0.78714051395789
O          -1.97846238255943   -0.83059872013548   -1.61747610222666
O          -0.93966384498762   -1.18477482257541    0.50704914584151
O           0.43754081410016   -0.64590308083652   -1.43553773071745
O          -0.98891399643738    1.05066750543165   -0.43935857630856
O           2.74013584591754   -1.44685302259322   -0.11641641209025
H           2.04232297415590   -1.62045292589837   -0.76273681696006
H           3.06536181678174   -0.55294990190284   -0.38487921843107
O           2.83840454153665    1.04190954368934   -1.01407874470915
H           2.40225977718122    1.51137105794767   -0.27411040131884
H           2.12235363995530    0.78738837505622   -1.60566026702976
O           1.20157363624292    1.83383859628277    1.00362180254922
H           1.25945951185629    1.06196741286291    1.57872398479016
H           0.38025694758583    1.72895819074657    0.49694005838579
O           1.20916309045275   -0.89579880833960    1.86214001200458
H           1.32604230606530   -1.55140283256591    2.55272851143239
H           1.88691819601490   -1.12279856407844    1.13662980050978
H          -0.11799952295507   -1.07447111220910    1.08808396924801
N          -3.72936536254798    0.48107306047118   -0.31168240355341
H          -4.48728320464978    0.97226730104982   -0.76654439322209
H          -2.99184478700821    1.13925051067308   -0.07364575483880
H          -4.07521434275421    0.04700752022904    0.53345675072285
H          -2.80557650922652   -0.39487244695337   -1.17010670012574
