    23
        -45.37997266  Gyration_radius:  2.33305638367 Dipole_moment: 3.121
 S           0.82377308021619   -0.46116664482712    0.08268068138305
O           0.47643594870568    0.16422643467249   -1.18089703868006
O          -0.20639992208438   -0.19699140554436    1.10014937250971
O           0.74669310222355   -2.01307448570269   -0.20471776208981
O           2.14931221950135   -0.14794426548451    0.56054443756056
O           0.75245742590674    2.32023713444039    1.13614018618016
H           0.37722086552890    1.45533235036277    1.36865467408818
H           1.67328554325645    2.13118742353978    0.93638411544692
O          -0.81207632578748    2.54607600458080   -1.06783929668924
H          -0.31367809659392    2.78771006704935   -0.26161198158599
H          -0.25464077149623    1.85978426952107   -1.47290344408898
O          -1.61534196299744   -1.27430176996556   -1.89529005563076
H          -1.40890968133214   -2.15511490876077   -1.57499616801332
H          -0.76869618868190   -0.78151839275029   -1.82934422358426
O           2.52659075691115   -2.48312238777639    1.68567782900138
H           1.28409903594706   -2.42995285387845    0.50187689479837
H           3.37275129586764   -2.85220127377021    1.42224926247650
H           2.57012877507689   -1.52465504535531    1.48523525476958
N          -2.32382717947772    0.61735222399087   -0.15012030266340
H          -3.21176087060004    0.76891406531424    0.31450291572184
H          -1.56446187551749    0.26087599960691    0.50794473701520
H          -2.37106820646811   -0.10489256066504   -0.90389791234438
H          -1.90188697816322    1.51324001097785   -0.56042217574795
