    23
        -45.37997251  Gyration_radius:  2.33286815407 Dipole_moment: 3.127
 S           0.86784093473755    0.25861426967582   -0.28202551947712
O           1.44097547961473    0.89253456682834   -1.44524654972621
O           2.04319831349849   -0.25789136373550    0.63949930480562
O           0.09718271931709    1.14731165091765    0.56920435864863
O           0.08781864970132   -0.93888107904364   -0.63424484338211
O          -0.05023181472433   -0.27906446120890    2.78272648722607
H           0.79269437975513   -0.73657647291289    2.81812404295263
H           0.06946668904680    0.40829844460359    2.09198333494478
O          -2.57248913174431    1.28744279994816    0.11652122518585
H          -2.42341023489714    1.16375421237565   -0.84234017279026
H          -1.71144629748477    1.61063335948236    0.43219264845262
O          -1.33980094734822    0.69924094170005   -2.22657288212612
H          -0.86462774478339   -0.05397574765399   -1.83938492416528
H          -0.64480759631592    1.31972530972068   -2.46227705854956
O           3.58014602159108   -0.61959219667252   -1.47457479032187
H           2.83430751588534   -0.05053029230545   -1.75842138564319
H           4.37232164957699   -0.08244144783197   -1.54875306611770
H           2.73277917985247   -0.57502193381427    0.01833037794050
N          -1.89652078448750   -1.07184519134271    1.02518509472544
H          -1.12281927963553   -1.19030873735757    0.30105546832339
H          -2.52805698324993   -1.86370743497018    1.06336494996373
H          -1.38659160002433   -0.90784700548299    1.92246168493553
H          -2.37792910789936   -0.15987219092313    0.73319221419961
