    23
        -45.36288398  Gyration_radius:  2.40820879639 Dipole_moment: 7.410
 S           0.48147530063780    0.11726076574201    1.05948030286788
O           1.39645467105395    0.77115994762950   -0.01420838403898
O          -0.80165085124032    0.77222879826084    1.01705326927455
O           0.46000928063872   -1.29998652791497    0.87692184049557
O           1.20815170826793    0.48023712887732    2.35182003182234
O           0.74309739307105   -2.56757717239352   -1.57170348921344
H          -0.21344800045443   -2.77964859619107   -1.44181807485613
H           1.05019193892506   -2.41440420458534   -0.66779766375499
O          -2.02215305961910    0.01509081971885   -1.31342789938348
H          -1.74640762031872    0.36015527257511   -0.44903870992867
H          -1.26187031763119    0.12160622462892   -1.89697058703405
O          -1.73390613499087   -2.59965980911419   -0.63710122722417
H          -2.05246196095671   -1.73165909741572   -0.95846565337577
H          -1.34189079244504   -2.41937978671829    0.22390768593352
O           0.66134698322846   -0.11236063132558   -2.29834624403940
H           1.11836947532892    0.46877086766840   -0.93938445922705
H           1.29942923417727    0.03806811018342   -2.99876927847484
H           0.68764724916736   -1.11073501373161   -2.09908125385986
N           0.41097557130578    2.89998435665467    2.37857311481131
H          -0.39254971186192    2.59273468969118    1.83654962917075
H           1.00260845863889    1.48717090863995    2.48593980904322
H           0.95207818801413    3.55589864466844    1.83145053161480
H           0.09450299726944    3.35504430444309    3.22441668942434
