    23
        -45.36288405  Gyration_radius:  2.40816448772 Dipole_moment: 7.412
 S           0.65612980213718   -0.87543253144450   -0.41349010820527
O           1.08262280081545    0.37970745866757   -0.97904991322202
O          -0.83325734869269   -1.10087731295520   -0.79858553365896
O           1.34352553128916   -2.03153623635279   -1.13525360669118
O           0.81341725844267   -1.00270418365689    1.00125154664739
O           0.82573695022529    1.39335500146779    2.74751019387423
H           0.51485815083636    1.95647080332187    2.00965098810295
H           1.34009649339003    0.69458458606903    2.32958961156247
O          -1.14583526192709   -0.37031319132770    2.85727000157543
H          -0.53957171032285    0.38121513327340    3.06829334459308
H          -0.54888354401908   -1.01742288113549    2.45768046055400
O          -0.17641572759984    2.36835597906299    0.41891441852876
H           0.35999909719931    1.79701077913537   -0.15400916129930
H          -1.05639535891234    1.97447772560290    0.43773629881177
O          -2.25448443995864    0.41929206655188    0.68699869827803
H          -1.88286640656220    0.14714605021423    1.59526053584945
H          -1.43001595335025   -0.49353891304711   -0.25097802625072
H          -3.18638312261929    0.19177533900211    0.69976513958482
N           1.22188093161114   -0.95259828027713   -3.44020865502121
H           0.35753967775626   -1.08075683648854   -3.94893267911101
H           1.20297821321568   -0.05291151791377   -2.96693808603979
H           1.33918232969373   -1.74861272777060   -2.13220674001319
H           1.99614163736722   -0.97668629986836   -4.09026871835368
