    23
        -45.36288406  Gyration_radius:  2.40818848589 Dipole_moment: 7.412
 S           0.11895896120501    0.26656141447766    1.13214540959226
O          -1.28885519824529    0.05854296385238    1.00108369267997
O           0.95135136755437   -0.86071603270160    0.79526122494033
O           0.55544991130205    1.47273196454633    0.25334274996692
O           0.45889120299174    0.76335901081874    2.53491278012521
O          -2.35627496396266   -1.95566039871572   -0.89384868261416
H          -1.47522829291141   -2.06118364920958   -1.30713963102847
H          -2.17617565007090   -1.72365457969008    0.02339056678904
O          -2.75101527179033    0.63310643985476   -1.28268893068688
H          -2.58235997611422    0.76972901925226   -0.34053457066008
H          -2.81125918082267   -0.35119105241108   -1.35051789202857
O           0.21973967189506   -1.68453285055711   -1.71090830878147
H           0.17410638327658   -0.81443644815641   -2.12424837646508
H           0.58013938592130   -1.53948516000270   -0.82131208079654
O          -0.36651787361453    1.08875950558665   -2.10028129733074
H           0.23380150281918    1.34471071664934   -0.69806583934565
H          -1.34188043428090    0.91624812810920   -1.86313227005076
H          -0.36004508063066    1.87183938552511   -2.65446627701954
N           2.96589114312594    0.37234199430086    2.30305149881519
H           3.52245547235005   -0.02980147039108    3.04544096628313
H           1.49191474559340    0.69738955410364    2.58545808522147
H           3.49291497768717    1.11020416529307    1.85568181179112
H           2.74399721670631   -0.34486260050811    1.61737535059865
