    23
        -45.37997262  Gyration_radius:  2.33295605319 Dipole_moment: 3.125
 S          -0.66231643051724   -0.53119265373429   -0.42164511361813
O          -0.90364034868328   -1.94231891021710   -0.60630026719976
O          -1.93192492606790    0.26566025018257   -0.92146758537680
O          -0.50994501796747   -0.17873636685321    0.99923738015311
O           0.43748250908624   -0.00113740482971   -1.20773776521994
O           1.47873860091165   -1.99543898912964    1.03617986915685
H           0.72108395470291   -1.42856029151882    1.25431333474473
H           1.13412023522776   -2.60595003760171    0.37883418836624
O          -0.04209323809223    2.58818750952565   -1.06141466952556
H           0.15075378596516    1.66303782472055   -1.32759238194891
H          -1.00013150652128    2.64471546531378   -1.05699731197501
O           2.87637518682946    0.07087867266001   -0.02828426164695
H           2.25518596501315    0.04059085638142   -0.77602390584437
H           2.67534376197223   -0.75329962160297    0.45872964961977
O          -3.49531435759504   -1.75862059914790   -0.27351502955179
H          -2.57668188618096   -2.10027225970423   -0.28489492475047
H          -2.69844779210946   -0.28850760812916   -0.66205041561218
H          -3.95956465745246   -2.21024210697303   -0.98213160106772
N           1.22601036924413    1.73937587973873    1.12891995545586
H           2.06183573111899    1.19059027540636    0.74249716504362
H           0.85730878276639    2.36106845704346    0.37422269088462
H           0.47139660771531    0.99572318732498    1.24868378057974
H           1.43442466072011    2.23444849116639    1.98843720928877
