    23
        -45.37093076  Gyration_radius:  2.33524563485 Dipole_moment: 6.819
 S          -0.48334266282575    0.15807752984251   -1.09128860707148
O           0.92302519329361   -0.16827260051690   -0.82004075839402
O          -1.25314905094419    0.06165453831104    0.15926326643828
O          -0.56510063947663    1.59052865460053   -1.62381965111221
O          -1.04141673636163   -0.72648550942659   -2.10570839997912
O          -0.50882031926190    1.65602512677748    2.19123626717909
H          -0.88911198399060    1.03685617978335    1.53938952787035
H           0.41420801453136    1.39525739856693    2.28662001015288
O           2.15216915811630    1.32297367305718    0.96292727885050
H           1.71429550632333    0.73238143104624    0.30765953169322
H           3.09066959435744    1.14302449702626    0.89703685186173
O           0.96207406141787   -2.71740997170828   -0.19901259244869
H           1.47017372652158   -3.14544781147389   -0.89069157567583
H           1.02999227790848   -1.74699999751600   -0.38357460746609
O           0.29996577272404    3.17544482169190    0.16686844743865
H          -0.23855304125335    2.27198068216290   -0.92981136105533
H          -0.20003169947356    2.88437993307612    0.96398095990535
H           1.19281142474547    2.82801008906853    0.33020703297812
N          -1.65348873860046   -2.41095371864681   -0.33409316987689
H          -2.42490278833359   -3.05825613373865   -0.21638090664994
H          -1.57456864613894   -1.93092777820172   -1.29299546086077
H          -1.71602363924631   -1.53167127351730    0.24190273315137
H          -0.70087476402093   -2.82016974027000   -0.15967481690105
