    23
        -45.36820389  Gyration_radius:  2.3660964753 Dipole_moment: 7.945
 S          -0.04794377902267    0.46208818815640    0.95432208669385
O           0.89082642219246    1.52357703125485    1.16647626678162
O          -1.02252833657948    0.27388199814620    2.02599629067284
O          -0.72757180932873    0.55254363235361   -0.35373687882691
O           0.73099048699259   -0.91279736526637    0.88657286009572
O           2.74162920406929    1.83629168736290   -0.77510124612436
H           2.31266556525840    1.82078364862898    0.09921325505964
H           2.09882502852819    2.30946301550452   -1.33422443571927
O          -0.82537535242196   -3.13723898460440    0.75023648674949
H          -0.66060000433715   -3.73008149922822    1.48541260404221
H          -0.14010458151005   -2.44071962148993    0.80002764242670
O           0.29674288403094    2.67434658368685   -1.66986973737494
H           0.13091387281087    3.42413239414621   -1.09534012615238
H          -0.11609429603975    1.90998205610619   -1.22341936502140
O           1.84246143709067   -0.53687577623224   -1.35868688044491
H           1.07912299832989   -0.26269384750028   -1.87601925257192
H           2.36349869068159    0.30246619047913   -1.19647318104072
H           1.26571629506562   -0.84249696381409    0.02088316702132
N          -2.50363528890208   -1.07620364851659    0.52554314083950
H          -2.01172122263630   -0.50987687652482   -0.20980282108763
H          -2.11057039776311   -2.04159863974602    0.53530042211016
H          -2.07234839161431   -0.55129084942813    1.38105564806627
H          -3.51489943494810   -1.04768237340947    0.46163404373373
