    23
        -45.36820380  Gyration_radius:  2.3660242606 Dipole_moment: 7.945
 S           0.03217482593962   -0.93392545364877    0.50119283427760
O          -0.88819115698980    0.21177531241681    0.35570504681345
O           1.07512230909319   -0.73816269851232   -0.67179673227766
O           0.72833366611858   -0.93134426648306    1.75354892964845
O          -0.64955296474893   -2.18384131906287    0.17471411663175
O          -0.64378952755046    1.74521443443340    2.56364169036284
H          -0.77953792047072    1.21190593553982    1.75678509169015
H          -0.85701150520431    1.16071490895912    3.29349767384206
O           2.05270990428872    1.34925093246606    2.33519555133632
H           1.22416483663459    1.77588826093329    2.62019040732583
H           1.81481852237805    0.40618429715463    2.28309637979223
O           0.06714373920186   -0.96400521811077   -3.18608338387466
H           0.57306518363852   -0.86018421480585   -2.35512205329595
H           0.49979971768468   -1.66318062376570   -3.67906304126212
O           1.61999115185772    1.69254457003789   -0.20966796368731
H           1.40375147474120    0.21869581628214   -0.54328813355293
H           0.72945467852536    2.05030826357933   -0.14310902320185
H           1.95827229997641    1.65559732265103    0.73179150039266
N          -2.04595089803616   -1.04067125805890   -1.56044892984214
H          -1.44969553459051   -0.99043761656425   -2.41407451560403
H          -3.03022791596995   -1.18168749162381   -1.75757747320551
H          -1.58886459449043   -1.78076515390095   -0.89957628338390
H          -1.84598031221992   -0.20987474027707   -0.94955164915933
