    23
        -45.36651119  Gyration_radius:  2.39155242181 Dipole_moment: 5.793
 S           0.61620602549645    0.24741823584701    0.48987887728081
O          -0.84685306332204    0.22933103134821    0.33535312921179
O           1.17299855700212    1.35011410704874   -0.45678513025718
O           0.97195268076571    0.60316619524258    1.85609351568508
O           1.18762934529214   -1.02661167758859    0.07057116660746
O          -0.52446192165047    2.96461142170370   -2.04175788213061
H          -0.00331007524193    2.61617263845085   -1.30437854035303
H           0.10637023068725    3.23412257833716   -2.71238732722424
O          -1.35938005133682    0.32713988746933   -2.31320611523546
H          -1.34238187133003    0.19511338645289   -1.34691064821923
H          -1.36293533885062    1.29282902399238   -2.42044140648537
O           0.33187642557407   -2.80706019709814    1.79413297453615
H           1.12118649894977   -3.17696605845673    2.19437069747215
H           0.65590967904379   -2.22322912790140    1.06223579519564
O           1.22198424869089   -0.12550229797819   -2.50309954917548
H           1.35296937692340   -0.88471095883010   -1.91783133124363
H           0.23971122503302   -0.06405448616874   -2.64941183536128
H           1.30628111440975    0.85814997155839   -1.34931741455189
N          -1.01251946347269   -0.73618245624684    2.69900272960404
H          -1.38536608315798   -0.41825800328683    1.76492507679079
H          -0.63348896367277   -1.70914452663034    2.54846113751091
H          -0.15411731678809   -0.10215655948630    2.72660604768156
H          -1.66026126904614   -0.64429212777738    3.47389602266123
