    23
        -45.36746425  Gyration_radius:  2.39767292583 Dipole_moment: 7.486
 S          -0.96220442592926    0.59534273100883   -0.24672146178553
O          -1.00970483318300    1.85764338363291    0.42982201971309
O          -2.10581799541516    0.25175777003723   -1.06101521563592
O           0.25852389071394    0.59678913154862   -1.24680571317795
O          -0.65239642327777   -0.52320092839919    0.69074556425303
O           1.05819112256453   -0.16310819733945    2.75800664579302
H           1.88904753158144   -0.31395928313118    2.30110188841688
H           0.35978172537267   -0.31895253801840    2.09553322016430
O           0.98819869201687    2.47704746986307    2.08613409937633
H           0.14781606047395    2.44455696924663    1.58804528408970
H           0.96524248607449    1.69436802543024    2.66692975052985
O          -1.07286441154600   -1.17137320671625   -2.94504844081073
H          -1.60698862108817   -0.52567071408511   -2.41473782797373
H          -0.22633786935625   -0.72916034793045   -3.05973070299139
O           2.29211409361639    1.41643475441086    0.11626109182498
H           1.86829570840820    1.87208472403915    0.90996237372903
H           1.05529095609850    0.90527947371880   -0.72458495261380
H           2.73405892501551    2.11199128881801   -0.37392506175811
N          -1.19373520706047   -2.53842862478345   -0.71591608844436
H          -2.16694248820121   -2.78841366011611   -0.56690186162123
H          -1.08544048877056   -2.13682347631396   -1.70318978529042
H          -0.94729728088751   -1.67950282838594   -0.03460968429936
H          -0.58683115723162   -3.33470192654137   -0.54935512147233
