    23
        -45.37350740  Gyration_radius:  2.3106886506 Dipole_moment: 7.161
 S          -0.31738484050301    0.02359540695491    1.06872944955428
O          -0.11491065433929    0.85561664757022   -0.25037876892187
O           0.73561062509846   -0.99242459378978    1.06708894150321
O          -0.09116251366833    1.02435350884023    2.11468870219820
O          -1.64166729457188   -0.54184015005098    1.06519938431323
O           2.70721470658602    0.09891411380680   -0.19050850234430
H           2.05754404775837   -0.45469205679071    0.31879077945808
H           2.42891523277225    0.03294503852281   -1.10755056623251
O          -0.50842850825687   -2.75463474987584   -0.48171014206684
H          -1.38465409804805   -2.79396652546306   -0.08897796078276
H           0.03352797764069   -2.25461255792368    0.15988530546497
O          -3.21960141979626   -0.41822332143157   -1.07520280330244
H          -2.72579101304076   -0.49839188059338   -0.23188712987010
H          -3.82949179263333    0.31062366032878   -0.95625579182388
O          -0.76037933451238   -0.69608280559054   -2.14317971997729
H          -1.72858478403809   -0.58687185081342   -2.08319901160878
H          -0.35894720675766    0.26571714975190   -1.05389156107722
H          -0.59321761483524   -1.57090831310762   -1.71741016006427
N           1.88935859344435    2.22358569037436    1.11887850640967
H           1.01809852204539    1.73851629571002    1.63047220103380
H           2.32397772896321    1.43794575652332    0.53642064310481
H           1.53040524165089    2.95103068200039    0.50797129710450
H           2.54956838904231    2.59980481505555    1.79202690792789
