    23
        -45.37811689  Gyration_radius:  2.37711265397 Dipole_moment: 3.959
 S          -0.13658888792054    0.04087445804427   -0.90459290370476
O           0.48444903124719   -0.98947250065464   -0.04841140864589
O          -1.57242516967943    0.06691407828951   -0.72245993496723
O           0.47559310611631    1.34443140833416   -0.64493176895585
O           0.13185589342760   -0.34433911076553   -2.37767279805644
O          -1.06232983006850    1.93175915930467    1.39845753574789
H          -1.92241683413836    1.97298945922861    0.97085080338640
H          -0.42356815693734    1.86514061620398    0.65012338341502
O          -3.01026767932325   -1.42731264765780    0.88970082330134
H          -3.12576011158347   -2.28616722746438    0.48011679085304
H          -2.60989614439153   -0.85185322729648    0.19511811705416
O           2.85454316263238    0.31783391194908   -0.10317930923044
H           2.13477801898195    0.97216440493779   -0.18613624027706
H           2.37664122609370   -0.49337185967829    0.11898828278395
O           2.68028053018209    0.03402314526652   -2.72339526110205
H           2.78596452899170    0.91241438791986   -3.09507398398873
H           2.95324583449957    0.10021935528993   -1.77359840013193
H           1.11109715704500   -0.26164857860003   -2.56140249354590
N          -0.81943309745790   -0.59411577516836    2.13410602582985
H          -0.44475104926022   -0.87029732133047    3.03481554833152
H          -0.93265393259405    0.45737778164648    2.03908468806601
H          -0.18308009265751   -0.86316628931703    1.31101243063167
H          -1.74527752321383   -1.03439759847323    1.91848004320786
