    23
        -45.37905403  Gyration_radius:  2.36322696657 Dipole_moment: 3.625
 S           1.22077303283418    0.25904235062366    0.38144888048527
O           2.56904701768364    0.62936045462077    1.06960738223614
O           1.42188879645623   -0.96880221819076   -0.38302873760915
O           0.25219349039315    0.05357845147361    1.44915567358295
O           0.84085589763265    1.36573701672423   -0.49320927984756
O          -1.35312191325469   -2.03865434475948    1.48475669326122
H          -0.94780513110109   -2.75518193512996    1.97517730145775
H          -0.73415771971797   -1.27409407380447    1.56815056331990
O          -2.29358397122158    0.94956464341297    1.30780029990254
H          -2.71322425064125    0.15849392499411    1.65497934685733
H          -1.33987903859525    0.82921292045345    1.47402016303991
O          -1.66031364965113    0.90338695133804   -1.29752056021574
H          -2.11254149142412    1.06043454868011   -0.44083141651980
H          -0.75222293515378    1.23765646370346   -1.14263718321779
O           3.32927078007462    1.84525307768100   -1.14453828819357
H           3.10827678488711    0.99160545710770    0.33597153636586
H           2.35272641346936    1.77144098450247   -1.16927000521020
H           3.52898673344767    2.78090397600582   -1.06467140842352
N          -0.96336438542629   -1.59045829988861   -1.13935845816989
H          -1.12339008837716   -2.22145608996339   -1.91630595626973
H          -1.36889522142322   -0.60259190525986   -1.31327495226748
H          -1.34043599352244   -1.95741225191903   -0.24179999434165
H           0.07891685262267   -1.42702009239827   -0.95462161021177
