    23
        -45.37246576  Gyration_radius:  2.39254699319 Dipole_moment: 3.916
 S           0.91465034654540   -0.17136981920612    0.75795493666054
O           0.95475295751411    0.04529919631378   -0.68984516916065
O           0.77371190148553   -1.59513822132340    1.06415275275928
O           2.27298729705985    0.31437000699951    1.35012172170025
O          -0.13306700277745    0.62017393159096    1.37301855089998
O          -0.01246733096374    2.11039240354975   -2.36539116428052
H           0.63608551176050    1.53389547661616   -1.94261656949910
H          -0.47012679642373    2.55560927005184   -1.64440108769371
O          -1.66619047783180    2.23209408483766    0.00176295742743
H          -1.03530763923772    1.71772194254881    0.56324765891936
H          -2.16671327410032    2.78802797676866    0.60019770749507
O          -1.84627947959259   -1.64069200219790    0.83069103656103
H          -2.05527678850356   -1.02508129643622    1.53884399438534
H          -0.88078796062428   -1.80337415030051    0.93710591741087
O           3.34594318487356   -2.02078690409853    0.74941803252350
H           3.69883097289432   -2.53623327635621    1.47840985065289
H           2.37505336452312   -2.14320368634278    0.76685390372178
H           2.91105372342752   -0.38519397282983    1.09497986649624
N          -1.55536124334186   -0.13045944359886   -1.32165553867767
H          -0.48842102876950   -0.09183290223499   -1.23218678138920
H          -1.87385216536910    0.82273238616685   -1.06832854936936
H          -1.83683247009667   -0.38016331335203   -2.26397704549273
H          -1.86238560246359   -0.81678765717141   -0.57835697205268
