    23
        -45.37674113  Gyration_radius:  2.32672297576 Dipole_moment: 2.105
 S           0.86974661063134   -0.81451781559449    0.85417520631715
O           1.75203691300683   -1.01809855964780   -0.26726126910597
O          -0.50199696787526   -1.22066668267272    0.53660659970587
O           1.36859300803203   -1.71275129606642    2.02897338798957
O           0.87808379398052    0.57474340852091    1.33521501347894
O          -2.22325386383971    0.82063131382809   -0.55800186239782
H          -1.94927708169798    0.23763847543868    0.16430763843201
H          -1.51218726462940    1.47982399688156   -0.62805872886996
O           0.22740982061540    2.09579903016728   -0.66808706990875
H           0.51382284176549    1.53703565575085    0.10006880195276
H           0.52305841864477    2.98622731645081   -0.47105120843136
O           1.16477750096658    0.26093560448847   -2.50049998921964
H           1.61952330259743   -0.23664645831969   -1.78642173678186
H           0.91540455622731    1.10015477886428   -2.07675117512009
O          -0.03116214137198   -0.17047222921866    3.67133171137313
H           0.46427754561278    0.24195541832546    4.38242553426962
H           0.18015440286397    0.33115641498918    2.85661611025157
H           0.81886299973086   -1.41491342344960    2.77918211077236
N          -1.03227457083586   -1.04353641140474   -1.99275234626645
H          -0.16066846771940   -0.56510364569615   -2.39696463189717
H          -1.74668487844800   -0.30872887551951   -1.77693777007632
H          -1.38544229214614   -1.79786448004450   -2.56941163251083
H          -0.75280417611331   -1.36280153607300   -1.01670270395625
