    23
        -45.37811688  Gyration_radius:  2.3771170231 Dipole_moment: 3.955
 S           0.88677876331752    0.21367214744641    0.07191461958916
O           0.90191153344324    0.75570628059809   -1.27029283997579
O           0.93953748344741   -1.24871455095396    0.07598310937557
O           2.14002552870828    0.75365666082400    0.79876745569116
O          -0.30129997807784    0.67941229819094    0.81493216490505
O          -0.63650723469627   -1.55511513095275   -1.99950918087667
H          -0.11016836288520   -1.14094876820492   -2.68926098438356
H          -0.02574366935854   -1.60512864233412   -1.22684222943335
O          -0.87770470076922    2.33938958604333   -2.37640475176733
H          -0.10249742207088    1.81007091023058   -2.07171941685984
H          -0.72380440221085    3.23057440414383   -2.05873501068852
O          -0.16879693163876   -1.45895106860401    2.47074384936140
H           0.18833540215426   -1.71482776551249    1.59887481321776
H          -0.55418810213584   -0.58963773076614    2.29305129500102
O           2.25893593424694   -0.58017619905461    3.02681737708832
H           1.34203872380333   -0.95490686559788    3.02727236771989
H           2.85152694895923   -1.32064989538363    2.88029539925774
H           2.21608234660881    0.30673308541864    1.68971078934066
N          -2.09367023927356    0.41526645900978   -1.01207628924082
H          -3.07559516779117    0.30998880154705   -0.78257228259927
H          -1.89874131282440    1.23941619605747   -1.62901654609816
H          -1.47084397780749    0.55934038927664   -0.14831585087411
H          -1.68561117315013   -0.44417060144635   -1.48361785769464
