    23
        -45.37674112  Gyration_radius:  2.32672140205 Dipole_moment: 2.105
 S          -0.62951891469282    1.26621313376480   -0.38776750443297
O          -1.41646011283396    2.61177337185898   -0.31025908379085
O          -0.64748499847043    0.81849773037834   -1.75772662931843
O           0.73105292016776    1.52936385521113    0.10326532993361
O          -1.29907195379774    0.30896254953525    0.49701913181409
O           0.50091275337069   -1.50161013129424   -2.27396415143136
H           0.10012022968101   -0.60780853108525   -2.34315098820579
H           1.27138049093694   -1.36692167788803   -1.69579807002058
O           2.10265515861459   -0.65701773493587   -0.19440312440330
H           1.60800334289429    0.19851333385216   -0.10658194499699
H           3.03306481311881   -0.42639583378096   -0.17861509949458
O           0.36428369491358   -1.74190707875219    1.66174031938753
H           1.15221471706503   -1.48933101396251    1.15139843303703
H          -0.15630644219908   -0.92893157238028    1.73085946078794
O          -0.19255592706141    3.07986532754832    1.99600548540801
H           0.34531206812683    2.45743850447707    1.46372324092873
H           0.30660087342563    3.89815234854753    2.04667342721113
H          -1.23813666090649    2.91602051171460    0.60042944653716
N          -1.21768372898684   -2.11438409547489   -0.41456515534867
H          -0.64107861750786   -2.39176467954708    0.41459040893793
H          -2.02418203467686   -2.70826353504391   -0.56670225433016
H          -1.48005745850453   -1.11312573192399   -0.16689949244763
H          -0.57306421267833   -2.03733908082021   -1.26927117576259
