    23
        -45.37674117  Gyration_radius:  2.32674530532 Dipole_moment: 2.104
 S          -0.40157653182499   -0.32508785825353   -1.37188432266568
O          -1.15066883900757   -0.29483976879901   -2.74073708246477
O          -1.25102917321640   -1.06561355287679   -0.42763540609206
O           0.87782587561733   -0.95588120456056   -1.57864751876097
O          -0.24841929096197    1.06018397467983   -0.91911870415371
O           0.06823029290344   -1.28295589637921    1.79995247968687
H          -0.31618122315472   -2.00376965795593    2.30167223792482
H          -0.43772017670726   -1.24388889078933    0.94740942905377
O           2.49466248350557   -1.09634632122397    0.50323637675994
H           2.05415202204167   -1.23232916365546   -0.36379975737095
H           1.80818300517490   -1.32908362105606    1.15179554023440
O          -0.13691283187026    1.47080445011996    1.93512456206929
H          -0.59482068901661    1.53361412041205    1.08479878723822
H          -0.12466944959370    0.52074266633799    2.14087109440637
O          -3.40298903834667    0.06831476113231   -1.38783480803971
H          -2.04557425293893    0.00738715735006   -2.49247786234551
H          -4.09400560654577   -0.57917152790325   -1.54427672950968
H          -2.74219161449986   -0.36344329242676   -0.80738364067032
N           1.97321479742375    1.45168999840581    0.35410380458491
H           2.66374035261576    2.15514435454272    0.12044705229796
H           1.20221955945918    1.36828508828042   -0.37491125817519
H           2.38159902046416    0.46393413764674    0.45186443030060
H           1.42293131847875    1.67231005696945    1.21743127569020
