    23
        -45.37992105  Gyration_radius:  2.36387394197 Dipole_moment: 3.336
 S          -0.26378879952694    0.64603883128566    1.11189442122781
O          -0.57455904962276    1.16648829617341    2.54960050237283
O          -1.56067363766422    0.37245840922695    0.46076975648198
O           0.48088835960165    1.65097248866783    0.38892746176861
O           0.49498473847096   -0.58648747027253    1.27433412902506
O           1.30224559347117    0.72682644445500   -1.93591200619705
H           1.02124488632834    1.28661340611622   -1.17661753987547
H           2.00869317692048    0.17254657465711   -1.55171481266662
O           2.71111024922055   -0.78719866788119   -0.17761556749683
H           1.94732252707581   -0.66251627708141    0.42952232270122
H           3.44828891021412   -0.33626492206873    0.23624894769929
O           0.50786190272796   -2.77065255788567   -0.28265409886997
H           0.39870369367822   -2.17208255586457    0.48276164363179
H           1.44931637282839   -2.73201281661611   -0.48253253602629
O          -2.65753167136327    2.48224935173366    1.58482090697762
H          -1.25289435533665    1.85491889539746    2.40097805030781
H          -2.43292274191161    1.76264735359891    0.96177389565815
H          -3.49851345471952    2.24739166184958    1.98383063284815
N          -0.72761131234799   -0.87884076274172   -1.68305451901218
H           0.08500100654852   -0.22746022933618   -1.96307502635087
H          -1.36852688148312   -1.05717965165585   -2.44815755758570
H          -0.31175214041798   -1.76533646251061   -1.29073566287673
H          -1.20688737268673   -0.39311935924474   -0.87339334374298
