    23
        -45.37997261  Gyration_radius:  2.33325042157 Dipole_moment: 3.121
 S           0.81428209759264    0.35769321159972    0.32432612187937
O           1.86327215155561   -0.07518111629138    1.21636781413726
O          -0.43355959270432    0.69896634448134    0.98378484112863
O           1.27355284340330    1.69593385135798   -0.37963652606614
O           0.58599910812861   -0.60320883611033   -0.76692219775657
O          -2.29597676606580   -1.25868089563716    1.19577843010417
H          -1.59134884190112   -1.92913720871116    1.29957088657020
H          -1.84978388698353   -0.43134218292082    1.44508035321367
O          -1.64883020354107    2.06298852053043   -0.91816089518345
H          -1.24800455267640    1.72559695381087   -0.08779588166966
H          -0.93349017768518    2.52261493084317   -1.36327065674005
O           0.15793466914934   -2.41431729448483    1.18104209604275
H           0.41650061219339   -1.95879963728706    0.36339857171761
H           0.75424269775299   -2.06042220378124    1.84644202252738
O           3.80075618120496    0.95634925940948   -0.21290313394251
H           3.29411940553261    0.37776303183575    0.39480177809697
H           2.23651848336680    1.58705801538234   -0.53077480285128
H           4.38442789076353    1.48184216591288    0.33912170671967
N          -1.94774917560723   -0.56151094450675   -1.30246076765102
H          -2.10116360954797    0.47143298248725   -1.34438065483239
H          -0.88849069615501   -0.66748608729364   -1.24174550200588
H          -2.29195878254077   -0.92033208004140   -0.35297128453485
H          -2.35124984524495   -1.05782080058500   -2.08869230890868
