    23
        -45.37140862  Gyration_radius:  2.40214718563 Dipole_moment: 4.284
 S          -0.69023814680646    0.98812424806855   -0.33804998411303
O          -1.31049095183208    0.07830980295659    0.62131754687913
O           0.37454724912157    0.29841341589129   -1.07163173251734
O          -1.61176102114856    1.68426126721025   -1.19292690571411
O           0.04707993105675    2.05761762150739    0.57430388764812
O           0.50630427433874    0.09700643647162    2.54503578077921
H          -0.30220875860999    0.11432877958230    1.98636162987577
H           0.81011838995739    1.00823454510712    2.54732964879275
O          -1.10071305666175   -2.53367901216969    0.33787800734195
H          -1.70417562248585   -2.96684532961839    0.94335790032802
H          -1.30938730557135   -1.57221570904286    0.38494738575638
O           0.58334032502485   -2.36252350488735   -2.03442013175885
H          -0.21388523134948   -2.67085454399354   -1.59279145630048
H           0.49681595637918   -1.40278259337420   -2.08899112806708
O          -0.08449565331179    3.78391248422501   -1.40456688180006
H          -0.60056770986927    4.58705695869394   -1.30325139536788
H           0.19412549802813    2.80777665175762   -0.03903239997393
H          -0.72465815058550    3.07087152656214   -1.61671623877889
N           1.36701104163955   -1.43367816804899    0.56394089573770
H           1.08090309012991   -0.70867862393714   -0.18067828937615
H           0.62621151001491   -2.16012144736569    0.50299420901831
H           2.28327650713730   -1.82223238504592    0.36802874008141
H           1.28284782540611   -0.94230240055225    1.48756090152695
