    23
        -45.37674116  Gyration_radius:  2.3268029983 Dipole_moment: 2.103
 S           0.78340588104957   -0.58524608129500    1.09189687281174
O           0.41903606119106   -1.35810401050232   -0.09866104927544
O           1.38939883178033    0.69222572277975    0.68899109087609
O          -0.34481594489445   -0.41052381014636    1.97175982571618
O           1.87517143379859   -1.39127000805674    1.86274364652033
O          -2.45740211350795    0.82346429147684    0.98061853220602
H          -1.78790080014567    0.42564130082717    1.57878017104638
H          -1.96102071368238    1.50637424304621    0.49762171715064
O          -0.47270944409992    2.11702344355966   -0.43036112121390
H           0.24390298662947    1.60516555754199    0.02654685585346
H          -0.19323611435818    3.03393322541409   -0.41360565302903
O          -0.49862605491302    0.15473967526549   -2.37805495294390
H           0.16958607516668   -0.37992452444230   -1.92600343404914
H          -0.50280576594225    1.00187698993505   -1.90116683008549
O           3.64093269118003   -0.49874350080409    0.09631755372625
H           2.64533328376894   -1.34199391585616    1.26423971710090
H           2.87699919688126    0.11392871171514    0.12888166865049
H           4.39029268823216   -0.02085834154393    0.45865336044244
N          -2.08782386495826   -1.12535341688449   -0.70815365832411
H          -1.81186460055694   -0.66393657737529   -1.60688783953721
H          -1.14253242647387   -1.43039584700827   -0.32578605164788
H          -2.43990927897115   -0.37122489921435   -0.03041330492853
H          -2.73341199716943   -1.89679823842603   -0.82795713706947
