    23
        -45.38117600  Gyration_radius:  2.29772408915 Dipole_moment: 2.261
 S           0.17754335664576   -1.47550182489449   -0.17130084469291
O          -1.13765854818941   -1.06834373770054   -0.67088700639899
O           0.05007661632300   -2.94252625928825    0.34814203879586
O           1.18700244521823   -1.46637532100781   -1.21091630496537
O           0.56819302580383   -0.63618914892597    0.96023300884601
O          -0.78508462854913    1.59760296315610    1.34094353172206
H          -0.33607895721153    0.72432364674477    1.26006497885595
H          -1.56536450199044    1.43890513539415    1.87397255689599
O          -0.99126566462649    1.49806190491064   -1.35985933999727
H          -1.03450786157586    1.81095179450293   -0.43489896350988
H          -1.19919096612123    0.54319958369833   -1.28410501017568
O           2.17641665765019    1.50299549680410    0.93756757881648
H           1.80211688249725    0.61271608869677    1.09756596803647
H           1.53000526743459    2.10558907092102    1.32020960784678
O          -2.31888167836961   -2.22557237065337    1.34237806344256
H          -2.08539287717844   -1.65482047468776    0.57908205484579
H          -3.06588825257906   -2.75967631413204    1.06339819626391
H          -0.73084166405994   -2.90476222321031    0.93266861374895
N           1.57625908103128    1.08138140307804   -1.61261542175648
H           1.97397672149137    1.39586598340463   -0.68706253943065
H           0.55122738964358    1.39056928076881   -1.64996603210280
H           2.11800296885521    1.41030391907167   -2.40387811256388
H           1.53933517786897    0.02130141336239   -1.57073658250254
