    23
        -45.37140861  Gyration_radius:  2.40216296235 Dipole_moment: 4.279
 S          -0.61220021649675   -0.58339499717444   -0.92303659094352
O          -0.97908037844061   -0.42605702239532    0.48702702442903
O          -1.21847237538726   -1.72822883356892   -1.54462431842062
O          -1.15100303372677    0.72100810958382   -1.64973915204966
O           0.83734515402850   -0.49654746171039   -1.07813678589066
O           0.27274785863042   -1.31622491258344    2.87324616376171
H          -0.40453671606465   -1.27912885275441    2.18663944899297
H           1.07108672925687   -1.62577967734203    2.43452921941248
O           2.44297899895751   -0.91448170963533    0.97003366834039
H           3.34452474713477   -0.99207176493092    0.65432506090466
H           1.87293984539060   -0.89384590727277    0.16704855741748
O           1.18159299388369    2.12209003113391   -0.91902526709574
H           1.18069540547792    1.16453343475221   -1.14084154911418
H           0.41119030569572    2.46990787252780   -1.37533080003432
O          -3.45624241830857   -0.48549918592845   -2.02847473880753
H          -2.80921293172405   -1.18917414862476   -1.80600809108906
H          -2.09525879146126    0.51173303081160   -1.80849337797881
H          -3.75690583439728   -0.66946018334205   -2.92146849509297
N           0.78097870789022    1.15769504895489    1.51363643649388
H           1.56518549872094    0.48415669237904    1.62081954929994
H           0.99563698786703    1.80151833687742    0.71297973191359
H          -0.04313504028827    0.54570602498976    1.18437688674879
H           0.56914451335914    1.62154610524953    2.39051738880185
