    23
        -45.38117599  Gyration_radius:  2.29774023801 Dipole_moment: 2.263
 S           1.28271441681181    0.33134404593861   -0.69470835550446
O           1.08949796229686   -0.27565010855921    0.62119638256789
O           0.30928981049000    1.40578561184213   -0.90252359988129
O           2.70528255927873    0.97481360567281   -0.71587417927615
O           1.23708201904470   -0.66267198237490   -1.74809259472489
O          -1.17019043919603    0.24621895531395    1.88093983140009
H          -0.28888252331693    0.12014900030760    1.45882545629715
H          -1.10043875675147    1.05582218045124    2.38867394013885
O          -2.12531212254101    0.36038948846224   -0.65297439495810
H          -2.07883241516927    0.33249149180028    0.32295220429618
H          -1.33583818178512    0.88582860940558   -0.90069456903401
O          -0.24494322709417   -2.51840286010584    1.21366738506409
H          -0.84776103985525   -2.10196574485250    1.83862998629744
H           0.46303335010698   -1.85534327317377    1.08157510659855
O           1.64817150698915    2.99519175476807    0.66835797204838
H           2.62242029724219    1.71967142859016   -0.09039586800945
H           1.76240777674108    3.86800314628164    0.28591533443509
H           0.95421129308646    2.54842387802422    0.13753955218066
N          -0.99689418338319   -1.91752969911073   -1.25904411017966
H          -1.62163285930916   -1.06274379865638   -1.09562120497338
H          -1.38803166912413   -2.57154009097114   -1.92767199678279
H          -0.07079896765094   -1.51828294399026   -1.59023120764101
H          -0.80455460690842   -2.36000267505570   -0.32044108036152
