    23
        -45.36919979  Gyration_radius:  2.39094428241 Dipole_moment: 6.950
 S          -0.28086123046475    0.57054325457566   -0.94409843545889
O           0.01849444686890    0.33303183400054   -2.35493966331040
O          -0.55724320133721    1.93530553003988   -0.60034584294154
O          -1.32249572148032   -0.36554218334818   -0.47690717810121
O           1.03000221625036    0.11649897541017   -0.19467943084984
O           0.32001434365486    3.38928904222412    1.45023237088638
H          -0.48301051305135    3.74068158698452    1.84017143486406
H           0.04161669117616    2.98455257423923    0.60304440861579
O          -1.85326661153303    0.30889502042086    2.02609222346934
H          -2.29813383982394   -0.45755179245839    2.39155028359022
H          -1.75665178397449    0.13789804536727    1.06393342392365
O           1.93658226815538   -2.37970652490602   -0.68674561653211
H           1.70863621387896   -1.47680509558480   -0.38287453154131
H           2.84445512800010   -2.33584160472360   -0.99168366766795
O           0.76511549341945    0.86728773068142    2.18910653499639
H           0.77658817337547    1.84552388656120    2.07434829309075
H          -0.18072122839704    0.64721752055411    2.32797060099996
H           0.97305592103711    0.41896476576054    0.79951311041636
N          -0.34268834343698   -2.12152203535661   -2.05494665322348
H          -0.10040740708019   -1.13615361765793   -2.46276795327994
H           0.52806122007448   -2.50964282557808   -1.63412324635090
H          -0.96260043422964   -1.75722290714752   -1.28538547844176
H          -0.80454180108096   -2.75570117998587   -2.69646497718305
