    23
        -45.36708118  Gyration_radius:  2.34456939352 Dipole_moment: 7.319
 S           0.83874216705647    0.50200110184803   -0.38686965629111
O          -0.35163538553153    0.72609387869469   -1.24907526846905
O           1.21231499040646    1.67233255566002    0.35109213549254
O           0.33550186310921   -0.58814898861484    0.64572194792748
O           1.88752010813768   -0.13641880697858   -1.15355428844189
O          -0.63075797950675    2.59443491319965    2.10814781130489
H           0.04686655802846    2.59539346391054    1.40962188024692
H          -1.42205227390022    2.21026254144139    1.68904871408629
O          -2.21908754300755    0.88596788123939    0.67196291613877
H          -1.61239710534796    0.91753253484531   -0.09083609552508
H          -2.00444684156337    0.07927381638288    1.14673075150759
O           1.18849635553418   -2.60926379525495   -1.10712943053231
H           0.86941515987795   -2.68242670532996   -0.20255759430410
H           1.66938262768746   -1.73887722510771   -1.12383526669458
O           0.63807609353019    0.47001911832618    2.94937712354984
H           0.46350446985212   -0.20776777357963    1.57556440411263
H           1.54637200585344    0.78071180586920    2.96652265273782
H           0.08913602171344    1.29480205607898    2.81281755767515
N          -0.53214866150088   -1.37514734544975   -2.63053536397763
H          -0.49034539778696   -0.41001353819365   -2.06503559820151
H          -1.48658465248442   -1.71411981749819   -2.69920256037679
H          -0.13430673779448   -1.23102386966490   -3.55371244517134
H           0.09843415767068   -2.03561783174645   -2.06426431667157
