    23
        -45.36561693  Gyration_radius:  2.40089593253 Dipole_moment: 7.483
 S           0.41387216598082    0.72874576923745   -0.23032839534166
O           0.40527839839975    0.38483174816719   -1.66164481246459
O          -0.46738622149385   -0.42100886981627    0.40461668656701
O           1.73176745487843    0.67072132158852    0.35467255850006
O          -0.29116987420274    1.96822427518500    0.03168842596900
O           2.06010782210360   -1.83475162963985   -0.64919080372987
H           1.95894704129903   -1.83650435357691   -1.60188448953399
H           1.95770397451032   -0.90655590822599   -0.38727804067446
O          -2.69329722985821    2.07131594567649   -0.90080682695691
H          -2.72322323919805    2.87057568355190   -1.43010323408062
H          -1.80747617036495    2.09401867063847   -0.44081471851427
O           2.64915841037316   -1.15198306725958    2.16610150292055
H           2.62783397963588   -0.36734929961338    1.59373158573191
H           2.61487157398139   -1.89276541249546    1.55113068929745
O           0.22096887182125   -0.38204779069185    2.88510377872383
H          -0.27356949757295   -0.44630469501146    1.38901670832092
H           1.12109229234600   -0.78380804182160    2.77671173054076
H           0.37102929176280    0.54367074561416    3.09001890311892
N          -2.01255310862607   -0.28821959623928   -1.81713024193704
H          -2.07634334424059   -0.92957071789480   -1.02734364177419
H          -0.92819122191668   -0.03063052522199   -1.87895218475232
H          -2.38718887133911   -0.69209449112356   -2.66900987325948
H          -2.47223250820696    0.63149023899304   -1.54830530680126
