    23
        -45.36462781  Gyration_radius:  2.41653355032 Dipole_moment: 3.600
 S          -0.60180264804109    0.89384662567128    0.23563917184373
O          -1.20305544565341    0.01928445232735    1.21612944832370
O           0.77881451661100    1.21055566176110    0.49032135595809
O          -0.77187672237756    0.28291220408693   -1.14628254424455
O          -1.40988343019311    2.19934630574849    0.15711028897773
O           1.06175413477527   -0.88612345865587    2.31591026376359
H           1.51741715723626   -0.05199972233154    2.16689462398140
H           0.13579421773196   -0.68998992746539    2.08110565153829
O           1.75748196481312   -2.40575836997541    0.24544434739510
H           1.31185699404553   -3.24538116770405    0.36580655552494
H           1.56058025675735   -1.87246289664072    1.05360576728994
O           2.82411611612722    1.04259477634115   -1.23653245222677
H           2.12096466258330    1.28757455267448   -0.60439966883861
H           3.58333676927258    0.78522816286410   -0.70935320385985
O           1.21523383532381   -0.95866498776810   -1.90114954212791
H           0.09474928054476   -0.28567474606676   -1.51800833966910
H           1.90235359643683   -0.25010947994224   -1.86540969036625
H           1.43166306378918   -1.57040433509987   -1.15227385928847
N          -3.59728574236599    0.87454707207049   -0.06108334396533
H          -3.66798956065086    0.49174740157661   -0.99465248904512
H          -2.36765771891762    1.87264624742105    0.03846412149522
H          -4.52619911078031    1.07211263441279    0.28718260509101
H          -3.15036619693344    0.18417299478419    0.53553095244298
