    23
        -45.36358005  Gyration_radius:  2.31693520965 Dipole_moment: 5.816
 S          -1.16924189644280   -0.03061521921032    0.84528667385134
O           0.16242115127226    0.49772661141542    1.04647811211382
O          -2.10132169585175    0.88403339166963    0.27185948499779
O          -1.04390503423283   -1.30122052118170   -0.03810050189299
O          -1.68789477780487   -0.61189163789161    2.15306469573063
O          -0.95469600644686    1.89474551805302   -1.99450793862608
H          -0.13998131330356    2.29461230755706   -1.61294023998818
H          -1.55341296604861    1.76322168270516   -1.24144378598214
O           2.04664156498415   -0.27316579872351   -0.82808812384231
H           1.49228104315489   -0.53261614529946   -1.57157348654895
H           1.43765195977005   -0.08778443152403   -0.09787083683420
O           1.27234178412339    2.46460293161934   -0.61451372882968
H           0.90083229178753    2.08094599250351    0.19186596725162
H           1.91649117928109    1.80954786841866   -0.91955258825938
O          -0.36200632347795   -0.56148890456088   -2.38125017674264
H          -0.93046921670269   -0.91885031269084   -3.06621811435461
H          -0.57047053321902    0.43345400015727   -2.32994531676919
H          -0.77527214004903   -1.05837587014193   -0.98852213578280
N           0.48919317969013   -1.82131506326778    2.68014522790223
H           0.59004604575198   -2.63603087286191    2.08898212161937
H           0.80802992605384   -2.04466397145782    3.61378026667912
H           1.05360350976381   -1.06961866444674    2.29826787066059
H          -0.88086173205929   -1.17525286084732    2.49479653365052
