    23
        -45.37113765  Gyration_radius:  2.36990837915 Dipole_moment: 5.247
 S           0.16741490640175   -0.22878557189779   -0.93659635477786
O           1.28856830092992   -1.13343059462745   -0.89431137329635
O           0.57178476506802    1.18499852189029   -0.85941608111248
O          -0.75072449091117   -0.44047884795131   -2.05056729270022
O          -0.71725144004305   -0.47418068206957    0.34308004604789
O           2.64142895153798    0.70932568203856    0.75268976746552
H           2.99492111387383   -0.02736717487242    0.24526835225239
H           1.94811087632638    1.08122401980332    0.17441137458470
O          -3.00198785325436    0.96875026874922    0.52457770585877
H          -3.74735952255527    0.37264066565558    0.61546796190424
H          -2.19903251904557    0.41774598206809    0.62158025233891
O           1.72209715107506   -2.89176833785213    1.06479576402703
H           2.53521546542493   -3.36327261128213    0.87853704555893
H           1.52743121348835   -2.35465275921027    0.26948483292794
O           0.89244944727116   -0.61556069518883    2.27311613623191
H           1.19973360153711   -1.53163218941685    2.13793081695459
H           1.61217442089617   -0.04311030038782    1.91657242029717
H          -0.10372343678992   -0.52742866346615    1.17913851110712
N          -1.75872730661516    1.83007097706654   -1.67275427891408
H          -0.79416082666364    1.98924095896114   -1.27352704283867
H          -2.03870386141139    2.51442194282697   -2.36617958749720
H          -1.55417460966880    0.83683963329625   -2.05746866085567
H          -2.43548434684896    1.72640978586788   -0.88583032555579
