    23
        -45.36357990  Gyration_radius:  2.3165838199 Dipole_moment: 5.809
 S           0.22976693547718   -0.80963717133475   -1.17355602914500
O          -0.27440508545067   -1.03122947326121   -2.59271464812561
O           0.88147949882554    0.59517992070615   -1.28517658926726
O          -0.89697521254477   -0.70102097847868   -0.27265616064157
O           1.20522122468542   -1.78287523127598   -0.80550331120943
O           1.90131685843111   -1.28633189166174    1.79131819515197
H           1.80378584845659   -1.71793231338946    0.92698965735571
H           1.02240214468850   -1.37223518300403    2.22640921604069
O          -0.83192634003470    1.45449702339520    1.46143654707016
H           0.10617261884968    1.67189898860511    1.47224695843381
H          -0.93441870772739    0.76546663656667    0.78823736180645
O          -0.69036541799013   -1.21090854890764    2.47497596134812
H          -0.86837898287791   -0.27388577430009    2.64000123652353
H          -0.96116981876856   -1.35043341490326    1.55695793718339
O           1.98416265361744    1.12673693131376    0.95198043315907
H           1.33970230742892    0.85375058398733   -0.41487742791001
H           2.00266527979756    0.20081234622180    1.37415138002835
H           2.89971286681250    1.39863392155578    0.86324960126687
N          -2.06298160580450    0.77228689803457   -2.42337625989480
H          -1.03005073739908   -0.31998770418978   -2.68571083829100
H          -2.92389256107076    0.77650298212015   -2.95445085352723
H          -2.26224127301724    0.55063486996464   -1.45353221370145
H          -1.63958247440040    1.69007659225759   -2.46640015364462
