    23
        -45.37078135  Gyration_radius:  2.32148023793 Dipole_moment: 7.203
 S          -0.23074437986194   -0.60250783197306   -0.64825887715079
O          -1.49422731731596   -0.78050822838520   -1.31329771228078
O           0.56783496944343   -1.90724934985756   -0.70876098480411
O           0.56030653810161    0.45758434388398   -1.32989752798085
O          -0.40190024960543   -0.22866040479114    0.76500235984720
O          -2.44234310512059    1.34556410433135    0.33147059995879
H          -1.66708732281205    0.80796552701305    0.62992355946016
H          -3.14406338315292    0.69888764824774    0.21631757212872
O           2.20043327743510    1.01769632347911    0.70529950288149
H           1.53257130702759    1.03690596969641    1.39720919279082
H           1.69974357856092    0.92613658906525   -0.12732733899118
O           0.69234308895065   -1.78447302278211    2.64390296981710
H           0.22101354394058   -1.17813552240979    2.03616553817880
H           0.18257857458591   -2.59578310818154    2.65861441341144
O           2.60998606978661   -1.62811261693299    0.75598070901565
H           2.15439644924111   -1.81045217180712    1.60301825548738
H           1.45017134130601   -1.82759321060285   -0.17293161099951
H           2.73089056929666   -0.65240039942547    0.73963033654772
N          -1.45970306491315    1.78422094726765   -2.06844520934676
H          -1.94878634834587    1.14585273053340   -2.69258153521641
H          -0.49162258197546    1.30192196156903   -1.84970097196654
H          -1.37260932292991    2.71895542385556   -2.45485815750577
H          -1.94918224164525    1.75418427819647   -1.11647511325554
