    23
        -45.37707444  Gyration_radius:  2.31889364201 Dipole_moment: 5.125
 S           0.89537080728040   -0.11822728930710    0.83159616416788
O           2.37777810377860    0.29553733234056    0.99828487635820
O           0.82705294978843   -1.51796308623558    0.43925558357866
O           0.24260074143194    0.14230993157860    2.10669201205922
O           0.31697492148176    0.73115815662739   -0.22532568671909
O          -1.81173220711486    2.23849206749317    0.08858987284397
H          -0.98772832837133    1.74307404806191   -0.13733948888699
H          -1.51939587210526    3.05891852939641    0.48901006258675
O          -1.65350432116820   -1.77006507009203   -0.32272353319067
H          -0.71546791863668   -1.81946620475072   -0.00914942844537
H          -1.60527935478088   -1.45784743772509   -1.23016782679320
O           0.97348627514326   -0.88304490839805   -2.20283983423119
H           0.61421781592794   -0.18400315165754   -1.61740088193986
H           1.02362211158461   -1.65661984208866   -1.62703210829721
O           3.31963569567598    0.10982230293794   -1.43258165625245
H           2.81905665595674    0.18424801509410    0.11322128667414
H           2.55442980102268   -0.31400072662522   -1.89144509710937
H           3.39422328722710    0.99564249053335   -1.79363790366471
N          -2.25494315862664    0.04210577521985    1.50559277497544
H          -2.36257776041147    0.96266430473018    1.01551852323834
H          -1.26000591956648    0.06286870181962    1.91447214296190
H          -2.96497408790328   -0.12227212021883    2.21026590661963
H          -2.22284023753952   -0.72333181870035    0.77714423951306
