    23
        -45.37716573  Gyration_radius:  2.39558772674 Dipole_moment: 5.422
 S           0.48483070420418    0.27619406651128    0.74533732916454
O          -0.39964736245546    0.94404521447661   -0.22830232072364
O          -0.20939442889803   -0.84245664641266    1.37435509488845
O           1.60918343415870   -0.41046299457533   -0.11614606715030
O           1.10194712422350    1.19787283461556    1.65869749945441
O          -2.82699634418631   -1.23506232455724    1.39279343264372
H          -1.88656581590776   -1.00466599089732    1.56558795580600
H          -2.98101961001802   -2.06320801122621    1.85111755400463
O           1.08423143618083    3.24065713229961   -0.00325841601900
H           0.30318082446886    2.89387970997565   -0.44985287223407
H           1.11671795171644    2.71170016311476    0.81939564913120
O           0.00046632568668   -2.64878426237338   -0.53870131835988
H           0.86865580404223   -2.47470903502155   -0.91211379352357
H          -0.00344132731036   -2.13646939334505    0.30137520717399
O           2.99639702401473    1.64396733590152   -0.86278524483400
H           3.69922248843296    1.75929238535507   -0.21927657766415
H           2.18041596340677    0.33538905889615   -0.45373150416938
H           2.33695619062125    2.36098399634579   -0.66867669530530
N          -1.92363475742561   -0.91652398860384   -1.09167873726877
H          -2.54699467900332   -1.07959541012964   -0.26734667964071
H          -1.32317389364988   -0.05401215730071   -0.81513047586183
H          -1.24474305543603   -1.71934824650257   -1.12687182748420
H          -2.43659399686546   -0.77868342653390   -1.95478720198360
