    23
        -45.37716560  Gyration_radius:  2.39530090338 Dipole_moment: 5.425
 S           0.09577999556411    0.23263190655061    0.89641129374732
O           1.34562785680783   -0.70062461490909    0.68347722652336
O           0.34412605300170    1.08482841647746    2.02628268021851
O          -0.04861770943951    0.98449892259030   -0.36462455156230
O          -1.01543012570321   -0.69884345248891    1.05957373665534
O          -3.31916196266784   -0.61035471037459   -0.24166165407583
H          -3.83390970645254   -1.36445559624094    0.05157327692673
H          -2.56332656006123   -0.54271696685216    0.38400627719350
O           1.53161291754762    2.98608548479643    0.64352207784267
H           1.02330863216440    2.75370254156867   -0.14227526061447
H           1.05468112488496    2.51635641187703    1.35714680757022
O          -0.23502112753584   -2.63624981861625   -0.55378710185539
H           0.71908030179984   -2.64810779290080   -0.43973503621399
H          -0.55580999481125   -2.07657924338422    0.18921970512380
O           3.27803992526267    1.01824000935014    0.79900380447746
H           2.13793961402956   -0.09358566561910    0.70112826185351
H           2.75813697867418    1.85327866504129    0.66157265197994
H           3.57461337789044    1.04655041651583    1.71145950454108
N          -1.26373608535321   -0.62518824211283   -1.93406909898322
H          -0.82266588077305   -1.53786639241626   -1.65235278957670
H          -1.24517114629626   -0.45488543974694   -2.93293014422354
H          -2.23134487888320   -0.61827042798072   -1.53604411436609
H          -0.72875160965667    0.13155560884061   -1.36689753316378
