    23
        -45.36342744  Gyration_radius:  2.60618363483 Dipole_moment: 5.975
 S           0.88383565723109    0.87536088725058   -0.43353053156337
O          -0.48548113625539    0.50510470564911   -0.83880760046863
O           1.82754467803145   -0.18149136082779   -0.75768090088424
O           1.25736375711044    2.20210543509990   -0.84199925165295
O           0.83520293317464    0.86080717882281    1.16567189473188
O           0.00162395758055   -1.41437625978362    2.42276496916497
H          -0.69791652113431   -1.13975060182382    3.01791648172591
H           0.42911950232610   -0.59427274722002    2.10945019056404
O          -1.23995060244253    3.08665890125519   -0.81357521733529
H          -1.43137027662846    2.14581427953128   -0.95024291895875
H          -0.29083841268050    3.12678068090124   -1.03229492711855
O          -0.19303567202685   -3.87330516903298   -2.21785435036419
H          -0.63530662672756   -3.49269791391871   -2.98030990221657
H           0.66576514741936   -4.18578014072086   -2.51207989645862
O          -0.58165329893729    2.95989520150440    1.72867329034553
H           0.02758104149997    3.69202241140202    1.84660883226079
H          -0.98486523204437    3.08944214129857    0.82787529447527
H           0.29757308531478    1.65763199584466    1.44211559889140
N           0.04365945015945   -1.92235249327809   -0.22978297870706
H          -0.52547727804583   -1.07804124684151   -0.51471579807129
H           0.99808030598059   -1.48913436362567   -0.41159127914348
H          -0.06875509902083   -2.07952685773938    0.78609053937563
H          -0.13269934988910   -2.75089466374996   -0.81270152859371
