    23
        -45.36342786  Gyration_radius:  2.60591730043 Dipole_moment: 5.966
 S          -0.65652671478347   -0.27644745198677    1.10674711475101
O           0.63122326919466    0.61994333790031    1.41954880256938
O          -0.14014798409546   -1.63506056996626    1.11944648474813
O          -1.64838571629193    0.03098093079926    2.10099662760844
O          -1.05360786696336    0.12648346662039   -0.25570011812636
O           2.74178519011403    0.51489074963996   -0.30884879866614
H           2.92987616359867    1.42500363628803   -0.54395192802349
H           2.11922279763472    0.55162757591878    0.44249120158563
O           0.32057739410482   -3.31074004517270   -2.98091355816473
H          -0.59228424116386   -3.23319208429303   -3.26802312201328
H           0.41921304389252   -4.17361642908978   -2.57190125749662
O          -2.62091529549051    2.07835649350129    0.72970298288634
H          -2.24752728007119    1.58387443601952   -0.01622099616275
H          -2.62694369856386    1.40041306220518    1.43023670663614
O          -0.36838436711390    2.99351320237235    1.73013925657766
H          -0.55814833212225    3.10150829966693    2.66473820488230
H           0.30257340676656    1.55542676557280    1.55146909349000
H          -1.24774903367908    2.82177989102584    1.29645665171527
N           0.89328628383158   -1.25284275749960   -1.17773498717562
H           0.69856244108323   -1.68738632010943   -0.22642778843778
H           0.84705352675231   -1.93812710505989   -1.94299610799153
H           0.07969820017619   -0.57749546581965   -1.16764570912026
H           1.77754880319390   -0.71889363856544   -1.13160877606298
