    23
        -45.37811696  Gyration_radius:  2.377221291 Dipole_moment: 3.959
 S          -0.15139843055531    0.70436651186835    0.56471107998624
O          -0.93288005356807    1.48777982109036    1.64440195163761
O          -0.63614228662404   -0.69029225853547    0.57945411701120
O          -0.41852144602778    1.31453383182638   -0.73830626128466
O           1.25076042138725    0.76747319190714    0.91886537260694
O          -2.64332314197499   -0.06575910995405   -1.12754023955055
H          -1.88523574755560    0.52303829353352   -1.30588524294343
H          -2.26656451025501   -0.71445075159107   -0.51682546530985
O           2.84739815599720   -1.23434720743627    1.50398514898399
H           2.35263169735659   -0.39026106549335    1.37498558906634
H           2.67816453688789   -1.49803053664478    2.40986908492099
O           1.76205972534637    0.40824609973438   -1.88252996902983
H           2.43711989571460    0.85572478890072   -1.36452804350110
H           0.91828162410326    0.83036267609129   -1.59566455898955
O          -3.35557162710457    1.68013920584404    0.72220355891910
H          -3.29940544008130    0.99677835847858    0.00745330698758
H          -1.89047344333394    1.55722415772693    1.36592492981764
H          -3.42084131188934    2.52852654508921    0.27843234049474
N           1.33804436681899   -1.85577644925835   -0.58840709883392
H           1.59284144702908   -1.06609379166614   -1.25095032908632
H           1.22600594098978   -2.74579063816487   -1.06092976118605
H           2.05892091598743   -1.87851654158883    0.17150334927715
H           0.43812872134727   -1.51487512180555   -0.11022285999538
