    23
        -45.36046919  Gyration_radius:  2.44124127811 Dipole_moment: 6.900
 S           0.42575696266976    1.16955910815074   -0.40369769081649
O          -0.33922257399607    2.11419283033176    0.57362061052919
O          -0.58922807674940    0.22263142498057   -0.90784722899009
O           0.85867081049742    2.04778859678667   -1.49503977321773
O           1.49071109460393    0.51569680597671    0.31016907240322
O          -1.33805915126107   -1.22603649685300    1.27625903702051
H          -1.14952777466844   -0.79968338814154    0.42325271242850
H          -0.77025501946114   -2.02371241357476    1.29854079417865
O           2.27512903077290   -1.93761409727685   -0.36442120454284
H           3.16992765173420   -1.97481552424109   -0.02085866438773
H           1.96389750029970   -1.02534499076190   -0.19212060163174
O           0.39715661739796   -3.30487408651989    1.01121646111671
H           0.04694876727656   -3.96733278395803    0.41384181337455
H           1.10785808697779   -2.84318677674445    0.51622415718135
O          -0.13942512590291    0.65598001851126    2.64224476803181
H          -0.68975324945750   -0.09958933109317    2.29477484234142
H           0.77309044582227    0.40782271726821    2.45985632913345
H          -0.33370966970835    1.65054912285947    1.48091017185393
N          -1.48866611929835    2.11447185772638   -2.30500665217787
H          -0.41184038203817    2.33086843363777   -2.11195322826221
H          -1.72686439000597    2.03153959533931   -3.28775282560082
H          -1.43946098113939    1.16996346313514   -1.79073610686727
H          -2.09313445437161    2.77112589445645   -1.82147678309562
