    23
        -45.36342791  Gyration_radius:  2.60574916045 Dipole_moment: 5.960
 S          -0.56677927535201   -0.07373964040359   -1.18519695463727
O          -1.30925568851728    0.50429056962016   -2.27205361862596
O           0.35930280618803    0.87755768605997   -0.54187706496600
O          -1.61222141752847   -0.44204792529747   -0.03151561242703
O           0.09464622987854   -1.33742217731892   -1.46498872164119
O           4.18484042677468   -1.53563098324634    0.27931594075379
H           4.57014567203963   -0.77763355564574   -0.16659323616127
H           4.33513678383225   -2.30240436363733   -0.27868157428216
O          -1.19926071280213    2.94920949096659   -1.25727343138676
H          -0.40948735723054    2.58767622080287   -0.82581246594961
H          -1.35852246813349    2.28970512616134   -1.95722209896873
O          -0.65452167058898   -1.42123820025928    2.32983630736945
H          -1.13013335142589   -1.20115487282323    1.50592551786109
H          -1.03717295725755   -0.86955914854491    3.01406938469907
O          -3.00880270121455    1.73050405383022    0.20971568247166
H          -2.18462784789096    0.36705586179880    0.10406468263479
H          -2.37559613105830    2.34357174365344   -0.25301342593118
H          -3.76441870295266    1.64923032868120   -0.37642200289762
N           1.45431896596829   -1.08792100222702    0.67521337049223
H           1.23516440197448   -0.08682768395538    0.41515724474076
H           2.46191029281612   -1.28471302773500    0.73383620918404
H           0.91613682727049   -1.34427308058126    1.52007973464448
H           0.99919786520686   -1.53423544991065   -0.17656387698153
