    23
        -45.36046933  Gyration_radius:  2.44141069449 Dipole_moment: 6.903
 S          -0.13623898305403    0.20852047425072   -1.28582338969657
O          -1.11725054046785    1.42159384299438   -1.28105122529713
O          -0.21906511204505   -0.32139686957121   -2.65020337957875
O           1.17084280264018    0.65860871118504   -0.88552735819840
O          -0.71751636262780   -0.76802325493805   -0.34261403138964
O           1.81991116587311   -0.54923336307673    2.91436797406368
H           1.71185117439046   -1.41443799844891    3.31209285165139
H           2.22506456679965   -0.70516135679235    2.03413876462839
O          -0.57647660912675    0.44467463068948    2.09466551048115
H          -0.66854881667837   -0.10182768641527    1.29606034729619
H           0.26689343070996    0.16350475758222    2.50557686785233
O           2.82274229092195   -0.95499070439467    0.44055478051900
H           3.68293558860981   -0.57167516208320    0.25810438614050
H           2.18285694171167   -0.42690599341083   -0.07953629447364
O          -0.11962811930347    2.62417529680950    0.72045642075940
H           0.78904999005875    2.44149999440008    0.45865008359741
H          -0.82690634121633    2.01974309467193   -0.50931121276150
H          -0.34451234101106    1.92131718623800    1.39092478833222
N          -2.45752034341370   -1.24691521442877   -2.09813788163647
H          -1.96927936542132   -1.21097600486811   -1.13908290785316
H          -2.74472907018262   -2.17976076432961   -2.37512714140737
H          -3.22269551379976   -0.58199713329047   -2.15139880904649
H          -1.55178044337270   -0.87033649277234   -2.62777913397964
