    23
        -45.36046911  Gyration_radius:  2.4413317338 Dipole_moment: 6.907
 S           0.34893232222876   -0.99851134210954    0.77137231322489
O          -0.33506033520041   -0.01795529376288    1.57264971401510
O          -0.67013464955671   -2.08954986063154    0.32004271945205
O           0.89648056097511   -0.43315777203826   -0.47831046075934
O           1.39859532296499   -1.74698624642831    1.46955548810429
O          -1.21802273510014    0.80795110127912   -1.66932590423634
H          -1.20455926788437    1.74195996695150   -1.37494674248539
H          -0.38570930975633    0.42385107229086   -1.34587082551872
O          -0.86121810297898    3.30699577111197   -0.65431804086448
H          -0.38761907006082    3.06562221405552    0.17069693547270
H          -0.23469301777235    3.80338026470511   -1.18295048042376
O           0.45124716020176    2.52591503696346    1.57190829378832
H           0.11110110265953    2.85228077431997    2.40731183456185
H           0.23700059207979    1.57060557843877    1.55458861464124
O          -2.66959369334056   -0.55173423621862    0.03066978373050
H          -1.55501986801631   -1.60770763784104    0.16904663888506
H          -2.47586391483712   -0.04276473944084    0.82497145122740
H          -2.28776688611368   -0.01865757720662   -0.72056105468904
N           2.20872148223065   -2.56685819578444   -0.73107742480221
H           2.00460565456680   -2.43356530974403    0.35685638614359
H           1.69707649230685   -3.35642051741132   -1.11210041716443
H           1.73697219678484   -1.63197482948269   -0.98193592251344
H           3.19452796362035   -2.60271823201618   -0.96827288978729
