    23
        -45.36207015  Gyration_radius:  2.43406157358 Dipole_moment: 4.419
 S          -0.44041323811944   -0.27069186270828   -0.98688749311769
O          -1.51352183907218    0.32152464710235   -0.24657815890028
O           0.92156604979115    0.20548436228973   -0.45649837877905
O          -0.39404990140183   -1.70900621349484   -0.98821487657472
O          -0.49032358196506    0.24443975837524   -2.43850414965754
O          -1.17704622550247    2.10549665144873    1.78894956760632
H          -0.76670494577038    1.44487796754237    2.38327163029185
H          -1.56524174001716    1.58247681574972    1.06941129366921
O           0.09081926776008    0.06179273609252    3.04808030059779
H          -0.03593987068757   -0.18527169854701    3.96565702531954
H          -0.28681162492550   -0.67244550635610    2.51643461246456
O          -1.22866980352846   -1.79033324527467    1.59413884042007
H          -2.00095681469261   -1.25850046364253    1.37879590772845
H          -0.83047240373196   -1.99282084677271    0.73245825579062
O           1.00649042791453    2.54303660344322    0.47802935052257
H           0.94521468389489    1.18814931555256   -0.12788159635944
H           0.13477300021852    2.54425432447776    0.98184459447745
H           1.69332495871638    2.50448426961140    1.14855267609191
N           1.28273021816400   -1.42749897005372   -3.24823941899123
H           2.23840905835283   -1.15249240170958   -3.06433642766346
H           0.95943047075856   -2.01434525049051   -2.48352362186661
H           0.20469399628121   -0.31788238511712   -2.93407370892272
H           1.25269983755192   -1.95472862749168   -4.11088624412363
