    23
        -45.36046909  Gyration_radius:  2.44130712915 Dipole_moment: 6.904
 S          -0.45738471609298   -0.77730262814602    0.94773096833854
O          -1.30673377516116    0.38083853837555    0.85440847764255
O           0.31551674954482   -1.01946620510250   -0.28715770754684
O           0.60738525643718   -0.54080762603201    2.06259668812249
O          -1.13643286950429   -2.01328692151983    1.34879789005772
O           1.57775811420954    1.34266838886630   -0.79401873567881
H           0.99651574526160    1.85478657164485   -1.39326724080101
H           1.17619249976264    0.45915185075628   -0.73875105869581
O          -0.27362553063724    2.45948311550511   -2.44582494751077
H          -1.06934165998067    1.98840436983463   -2.11692879052002
H          -0.14668400211856    2.16489171582941   -3.34888070088854
O          -2.38735287429056    1.08961951671703   -1.47357643168364
H          -3.14765615963627    1.60859020420465   -1.20383420367908
H          -1.98923735500753    0.75404765581373   -0.64435330441997
O           0.92967512475312    1.94651484903344    1.66785874488678
H           0.83697049630661    0.45130014714373    2.03139639770132
H           1.31388999536995    1.86103869464541    0.75165174419014
H          -0.00910838249001    2.11387874718116    1.53287628692106
N           0.87781541930960   -3.28791446205930    0.64974166860503
H           0.81776972221996   -4.15184358724015    0.12117689897135
H          -0.08390176186900   -2.96858052376814    1.11538738767659
H           1.63158620629871   -3.30968487552760    1.32924252062366
H           0.92638377731605   -2.40632752615573    0.03372746768016
