    23
        -45.37693797  Gyration_radius:  2.30883551627 Dipole_moment: 2.684
 S           0.70705579589780   -1.00400871980282   -0.35518170042162
O           1.67404013002277   -2.22033641332337   -0.51309677099507
O          -0.10478598798686   -1.23854168646697    0.83876302219219
O           1.51838567260825    0.20249185312600   -0.20552132979979
O          -0.09231042329355   -0.95318198254640   -1.56881666956638
O           0.12000149486988    1.53240599984480    1.65390641069519
H           0.76747159456347    1.09924815241083    1.06434062566820
H          -0.28391247577548    0.81056595883510    2.14242779835510
O          -2.42449826167063   -0.29659772797016   -0.13275189486110
H          -2.36237818897473   -0.69433381962173   -1.00526896378549
H          -1.66818708121215   -0.67722106018933    0.35323418043339
O          -1.65127241621547    2.26446053585059   -0.20432043098449
H          -1.06993895258495    2.22299815203865    0.58946885861783
H          -2.15132131038789    1.41720099196929   -0.17135118431451
O           1.81228147125119   -2.50749970387491    2.11682649895636
H           1.00731306807124   -1.99157821684056    1.91047588365517
H           1.51575453087359   -3.34875846346357    2.47120953448393
H           2.00071762034545   -2.41765036454254    0.38914906173455
N           0.14178940058878    1.59750943697699   -1.91881873140408
H           0.32692843925370    2.13669714375499   -2.75710812147034
H           0.97659882488712    1.46739228484837   -1.31458194795225
H          -0.65494606514190    2.00858268156097   -1.28086699985647
H          -0.10478687998926    0.59015497741732   -2.10211714938038
