    23
        -45.37283352  Gyration_radius:  2.32797254182 Dipole_moment: 5.567
 S          -0.47018632649929    0.22449016881548   -1.02363399667048
O          -1.76441735965342   -0.39638605622747   -0.90433608226548
O           0.59166370851276   -0.78748157883760   -1.26944911184768
O          -0.38019802265573    1.31905102441167   -1.95900015153534
O          -0.08145122525817    0.85642994857059    0.36391132007712
O          -3.09418314961482   -0.53075220328636    1.39471771812631
H          -3.69236151175767    0.21567718292202    1.44281312971930
H          -2.70244854785826   -0.50656086432927    0.49583474382505
O           1.49956820887232    2.77316335592531   -0.97973315350244
H           0.76562459469220    2.32021397017922   -1.48206841103440
H           1.06769908382012    3.12881134606467   -0.19879155428331
O          -0.49075284454617   -2.76164308980418    0.16208684430316
H          -1.41492446641288   -2.75082429482247   -0.10243402954269
H          -0.04431952083358   -2.16369318094957   -0.46699362559583
O          -0.52771304479290   -0.93373769195630    2.09910902912967
H          -0.24748251104999    0.16401580474725    1.10101031207626
H          -1.49499067738296   -0.81911412040335    2.17118977331987
H          -0.42404069373347   -1.74460376489094    1.54741667323435
N           2.62242820452596    0.47566688035750   -0.46544607390698
H           3.48467672735536    0.28910269361714   -0.96772551686039
H           2.27578405878409    1.48362176393178   -0.63216553212860
H           1.79038645579953   -0.14989212361134   -0.85449411864549
H           2.73163885961235    0.29444481955352    0.52818182397118
