    23
        -45.37693804  Gyration_radius:  2.30889794264 Dipole_moment: 2.685
 S           0.69929412043228    1.05984090120580   -0.14900630638156
O           0.06043856692661    0.65397490488453   -1.39928458016530
O           1.73846629853991    2.17852881037341   -0.47788362215513
O          -0.26426298979051    1.64933080773673    0.76677203266800
O           1.42905941387236   -0.05685339740675    0.45100688841124
O          -2.20807992279342   -1.64187727232670    0.57225322186503
H          -1.65878830123456   -1.43516365139713    1.36256565357927
H          -1.55892371892962   -2.00041696771747   -0.07560482640344
O          -0.39965440999245   -0.70450957237091    2.30802497370287
H          -0.62112131847592    0.19014740959664    2.57965917844979
H           0.35602467258167   -0.58566750893880    1.70147987992302
O          -0.11533882072346   -1.99666767056607   -1.04709518023178
H           0.64034870456292   -2.16478250265121   -0.47832559528994
H          -0.00537546929714   -1.06990524668891   -1.33586566804987
O           3.60336682823158    0.36210602411585   -0.96883601763210
H           2.51536755902123    1.71545558853657   -0.85420502668067
H           4.39119341569698    0.39962648572123   -0.42182118228959
H           2.90634613663150   -0.05876180869596   -0.42669373822560
N          -2.35606282270288    0.71777983000705   -0.43291591431688
H          -1.70020182007528    0.64944720546377   -1.23540775172256
H          -3.23779543893106    1.16079521881995   -0.66538719907745
H          -2.45319900519842   -0.29356931613348   -0.01079352377637
H          -1.76110166835409    1.27114172843356    0.23736430379869
