    23
        -45.36892120  Gyration_radius:  2.39432611814 Dipole_moment: 6.497
 S          -0.16293732906763   -0.73740465874343    0.95432910230624
O           1.00303400834328   -0.41393923605859    1.74347367713467
O          -1.15432295413547   -1.56101683415134    1.60431746925719
O          -0.90791241441670    0.61323998008149    0.59985352138336
O           0.20434671587221   -1.29264851385006   -0.37065621455423
O          -3.36643798845562   -0.82752531019255    0.51453926755362
H          -3.46438488472316    0.05806133286324    0.87366991559546
H          -2.60816773100842   -1.22059592453484    1.02921387872898
O           2.86449395785578   -0.73119292108175   -0.14363676759195
H           2.22765873331966   -1.22817158259284   -0.67089287366700
H           2.40408534758703   -0.64314815180312    0.71235054039682
O           2.59012217177843    1.77873694608871   -0.97730201532468
H           2.75133693210816    0.83008245739073   -0.74631441284266
H           3.44992825360245    2.20238115069406   -0.96827743041412
O           0.99942585754791    2.21368221272480    1.13670800032385
H           1.32181847883498    1.48377352959064    1.68726213986649
H           1.55715842062471    2.19821847750194    0.32483202044837
H          -0.24721744677510    1.35543801968385    0.77544926252205
N          -1.91118132875287   -0.81329908596160   -1.65557093681012
H          -1.82701251422434    0.10858175291821   -2.07294047344041
H          -0.94535847853397   -1.06969412308557   -1.15785391457489
H          -2.61607386555192   -0.79452258285025   -0.84196471153551
H          -2.16240194156505   -1.50903694468836   -2.35058902465680
