    23
        -45.37298027  Gyration_radius:  2.35056600414 Dipole_moment: 2.916
 S          -1.43849820355039   -0.14216934601234   -0.47621372300844
O          -1.73230860896085   -1.54847967371504   -0.64534705800745
O          -0.51538696781384    0.37716536061032   -1.47816460127799
O          -2.78278330985800    0.65247099302052   -0.63411319206743
O          -0.94911899007856    0.13183597848873    0.88197638071485
O           2.32116871942541   -2.14044924969952    0.28663773792467
H           2.30084430205377   -1.17971051796384   -0.00618904866712
H           2.54241105699945   -2.64119476511665   -0.50039583686944
O           2.02900623185684    0.27468020045780   -0.60755887559527
H           1.90516051615219    0.97067278953641    0.06752486789998
H           1.17421887294639    0.25455321032195   -1.07713493675619
O           0.88131325479125    2.10080334557860    1.05376161021681
H           0.45785142618395    2.80488758904226    0.55328219919991
H           0.19154000063209    1.41824730860272    1.14724608352456
O          -1.18857237891007    2.83946805790939   -0.96565470344515
H          -0.75906948213656    2.00585510222900   -1.26077033625030
H          -1.29918895371275    3.38065910584314   -1.75005142923934
H          -2.51274456276648    1.58587633707560   -0.60798230256188
N          -0.11500493154695   -2.27154997226924    1.23406712969709
H           0.89766930449874   -2.32986351946153    0.89182959785661
H          -0.78047205294574   -2.37884341300124    0.42629998826548
H          -0.30857167877268   -2.90201874160283    2.00458606355860
H          -0.31946357447119   -1.26289618987351    1.46236437489776
