    23
        -45.37925346  Gyration_radius:  2.28815522782 Dipole_moment: 6.582
 S           1.21501536819636    0.78206112779831    0.21752970061184
O           1.65052895848488    2.22556259713887   -0.15138384143399
O           2.21501386579038    0.19892851295283    1.07390202110776
O          -0.07856762375472    0.91052823928505    0.93966650269534
O           1.00208901898749    0.03713326540474   -1.01784114186121
O          -2.02606841908665    1.35882918136650   -0.73275989283222
H          -1.30505280123511    1.23102381718397   -0.06483191680902
H          -2.64448707035198    1.98037835254148   -0.34619527517431
O          -1.25714461847989   -1.31347638742919   -1.27646679509043
H          -0.35052712708289   -0.94179007971913   -1.35834652486739
H          -1.83271517328256   -0.53691095403012   -1.32139324315522
O           1.77900738316245   -2.32605421964811    1.57008014870503
H           2.27855374273484   -2.52639073309845    2.36389464318028
H           2.05538336874997   -1.41318560827554    1.30562273913306
O           0.11290167568644    2.21129969697269   -2.26008877303692
H          -0.79166229687032    2.08717609103868   -1.92450002274062
H           1.11838478560993    2.44072025305752   -0.95923252775711
H           0.48574650679989    1.31543144098487   -2.28954224585669
N          -0.74836002007223   -1.57187857758710    1.27362303629392
H           0.16638717307933   -2.06520617902543    1.43080971765628
H          -0.52683173790071   -0.53126687605921    1.32652064861005
H          -1.06111287097946   -1.69580604530572    0.25995575960721
H          -1.45648210817615   -1.85710691555646    1.94097726301681
