    23
        -45.37693812  Gyration_radius:  2.30855939116 Dipole_moment: 2.681
 S           1.23204637547835    0.32230069471953    0.11385807529591
O           0.83753001318979   -0.66726864480511    1.11443270631969
O           2.64836754318210    0.85824769090180    0.49628813554823
O           1.36236963184610   -0.28313199016835   -1.20180658340096
O           0.31433082967098    1.46134878237653    0.11601132627972
O          -1.11838547423733    0.75295946487795   -2.04196725034146
H          -0.68990662977418    1.14549698435708   -1.25748933248735
H          -0.38201464078337    0.46998366006444   -2.59055278025728
O          -2.29853569469911   -1.35147642881637   -0.88453715645333
H          -2.05165394938792   -0.58663123247423   -1.45299448117684
H          -2.34497019068252   -0.96448741825844    0.01982065541219
O          -1.76311252580763   -0.08989860573369    1.40641616946347
H          -1.77377150865807    0.84965326625009    1.20640327640411
H          -0.81510815378936   -0.31713199644114    1.47054806135771
O           1.57253837652222    2.70335904287563    2.06378730264374
H           0.88687112031679    2.40442395533353    1.43342019388117
H           2.50234599817526    1.49126125787482    1.22947291429109
H           1.76657455328668    3.61759341655422    1.84511969373132
N           0.02378158267293   -2.41983356653544   -0.63046432538905
H          -1.01935210216667   -2.10722801696556   -0.78855188532149
H           0.27493259824427   -2.15618349244785    0.34219678073310
H           0.20673617725747   -3.39299404320987   -0.84774271341721
H           0.62838605015261   -1.74036279032941   -1.16166879311973
