    23
        -45.37693801  Gyration_radius:  2.30883460179 Dipole_moment: 2.685
 S           0.00909170617573   -1.25517468512805   -0.24186557920488
O           0.31153130872176   -0.84301833880088   -1.60316293618401
O          -1.28139104198103   -0.74623860149378    0.22198809977364
O          -0.07947504567466   -2.81444021059755   -0.26127999649005
O           1.08054075208550   -0.87424248290756    0.67630803651329
O          -1.43806317523408    1.35802580793406   -1.43934240546937
H          -1.12410911674647    0.91276535041601   -2.23085164746150
H          -1.52994489338150    0.63854157427565   -0.78593427560457
O           0.54039856931686    2.74273741764609   -0.28610131744254
H          -0.25477220340231    2.44648899131860   -0.78512495730782
H           0.37020343092667    2.42875697444898    0.63163319960886
O          -0.00502197353880    1.26550675399836    1.86959254617405
H           0.44535972604495    0.44430552417322    1.59174956356552
H          -0.94143385910808    1.05608070681847    1.82333342284180
O          -1.72101468444275   -2.79038396248128    1.81810930613647
H          -0.54634917880628   -3.06332141969839    0.56315136699379
H          -1.74110967091649   -1.90337212624431    1.40628667766545
H          -2.58934682402558   -3.17588832952897    1.68177949003110
N           2.14961385985120    0.85380796867989   -0.95096378727938
H           1.57501201088015    1.76276490102739   -0.71797937043810
H           2.17957230436722    0.28372141206960   -0.08323073001054
H           1.52757450554786    0.24455958771676   -1.54358145598296
H           3.06313349333663    1.02801717636010   -1.35451326042712
