    23
        -45.37719478  Gyration_radius:  2.3395215847 Dipole_moment: 4.185
 S          -0.87254819403064    0.16187754280144   -0.72919324407064
O          -1.01897902704585   -1.11230173080551   -1.41911009290750
O          -1.53028032534526    0.16039848544039    0.57887340428783
O           0.54064354996032    0.52227280825823   -0.58646822054480
O          -1.56153932939003    1.22388938326525   -1.61916180203318
O           0.02814869533011    2.06509794763848    1.53962524947235
H           0.64731207373568    1.74105939085009    0.86708181736277
H          -0.68889234464120    1.40427669553244    1.49451037234823
O           0.01274089969849   -1.41213967826334    1.99828767356189
H          -0.68011073841130   -0.87372288433480    1.54404064006237
H           0.63074458586273   -0.77663039877277    2.36781455268778
O           2.57493177567645   -1.03100507358994   -1.13441589195157
H           1.89074082107748   -0.34882030162082   -0.92351515509593
H           2.78626753048294   -0.90631363293770   -2.06105932007891
O          -1.43349938682786    3.41742127508632   -0.21135043004990
H          -2.29002952030347    3.56148837377245    0.19666417771376
H          -0.82754401622841    3.11566512576761    0.50952828869046
H          -1.50380517667825    2.10267101491020   -1.15350041900295
N           0.67273857858748   -2.64807521263052   -0.24984048996789
H           1.57811180119273   -2.24477572430023   -0.59423798582257
H           0.51504044796061   -2.32920606824403    0.74242076604464
H          -0.09145041671571   -2.13717273655093   -0.81148665639558
H           0.62125771609383   -3.65595463127711   -0.34550723432540
