    23
        -45.37298023  Gyration_radius:  2.35062805927 Dipole_moment: 2.916
 S          -1.26455215800538   -0.60917295815039    0.58867979807506
O          -1.10543708953726   -0.80682120451503   -0.84704633211946
O          -0.52806326367709    0.57928717667809    1.04066363375374
O          -2.78477777139983   -0.31624238140652    0.84657782571323
O          -0.89852669140590   -1.77111015757186    1.36878403438602
O           2.99245206156461   -1.04641153805188   -0.04395787184001
H           2.42156458038355   -0.56009510057050   -0.71235779171351
H           3.13798639420947   -1.91635248856392   -0.41957253707246
O           0.08684056101375    2.34071472570060   -0.90253716930255
H          -0.11830578676731    1.82803079248530   -0.09917486343801
H          -0.76165338595523    2.44951024452420   -1.34270535624536
O           1.30734409982508    0.03738801071580   -1.68823321557677
H           0.46137070805688   -0.40659948898588   -1.49127475465018
H           1.11119955689505    0.98358001690195   -1.54084486647485
O          -2.63715537433196    1.22516313041211   -1.39751268428784
H          -2.99731956540140    0.40465012103756    0.23012055437454
H          -1.99668056086241    0.47933439879940   -1.40408650184526
H          -3.25193475829069    1.06177883125180   -2.11567871303084
N           1.40386729965625   -0.79990092158351    2.02137541232393
H           0.63546052384566   -1.51367505671845    1.93749519567388
H           0.84123491258838    0.05486712323782    1.76828986043470
H           1.81010120143345   -0.74950218587257    2.94932656621958
H           2.13498452611995   -0.94842108975664    1.25366976666190
