    23
        -45.38101013  Gyration_radius:  2.35737228329 Dipole_moment: 2.418
 S           0.17423230247336   -0.11051799466206   -1.32496417519595
O           0.12958322576044   -0.47248413531806   -2.84118686789991
O           1.36840891510307    0.68514831996641   -1.07530934002542
O          -1.04036177040265    0.64590522414160   -1.01375490575627
O           0.21193833058930   -1.37026259097459   -0.59625246867407
O          -1.37632584009349   -1.68875555143585    1.50018122818560
H          -2.22725808559792   -2.05212468745683    1.25204553304676
H          -0.86156463676988   -1.61018997773813    0.66466117683851
O          -1.09138916587588    1.01173081024079    1.62444296504055
H          -1.33975867164779    0.09425919430393    1.84637392390982
H          -1.19343885973621    1.04613690437373    0.64970079521077
O           1.55925998636590   -1.87596331913618    1.68561565302291
H           0.77485220882782   -2.15893092615628    2.16801948028416
H           1.28189301412785   -1.88076561000344    0.74887876682007
O          -0.89871177017138    1.91946813617453   -3.30190870538175
H          -1.06448351423276    1.69259186804872   -2.36409815190251
H          -0.08858171020106    0.38030262547852   -3.26789756621457
H          -1.75712402663141    1.95479174720010   -3.73017771151716
N           1.51379142646422    0.77794559070984    1.50434330020575
H           1.58877293110456    0.83166961599906    0.43975700414764
H           1.68908588159244   -0.22995407534957    1.75367347668603
H           2.15729819073752    1.41253846894123    1.96321463001834
H           0.48988165821968    0.99746037265733    1.71464196915163
