    23
        -45.36399215  Gyration_radius:  2.64083091033 Dipole_moment: 7.083
 S           1.00997956545515   -0.27735100493718   -0.68846611786651
O           2.30247705032461    0.08838020688132   -1.46371503260226
O           1.35267167617773   -1.36447866705195    0.21363738727994
O           0.56185332281309    0.90894924245034    0.05800293053417
O          -0.01160649094072   -0.67211060457446   -1.66403656603789
O          -0.54446955400131   -0.41354474494072    4.56162928908633
H          -0.64491302820048    0.45991390036089    4.94627674759624
H           0.19452232407511   -0.83991408667245    5.00136251656689
O          -2.04621432197168   -1.57428614739106   -0.24883860293949
H          -1.33847137660615   -1.23149177739334   -0.84751838344604
H          -2.17183864397927   -2.49035278537653   -0.50146384324205
O          -0.75329602596642    1.84336573017573   -2.10302923139863
H          -0.75900850158317    0.87001174446482   -2.16517002652800
H          -0.42661973347161    1.98482274882537   -1.20163571931012
O           1.60965045743583    1.84007055350712   -3.26947857385973
H           1.49491569026279    1.35527560492885   -4.08959465631962
H           0.69746685702595    2.02069519279931   -2.92433470729052
H           2.10788969484797    0.79978184424424   -2.13763826572184
N          -0.55768753738454   -0.66616099580776    1.76171590818983
H           0.27665877647301   -1.22161522454244    1.42467797575400
H          -0.30815767851191    0.25147960878816    1.31169412372085
H          -1.37781394397467   -1.04860876068052    1.24347136425058
H          -0.66798857829858   -0.62283155804795    2.78245146358766
