    23
        -45.36399179  Gyration_radius:  2.64025424102 Dipole_moment: 7.062
 S           0.75281690535545   -0.33495476281335   -0.94433713046312
O           1.16396784505195   -0.38338358128469   -2.43889937784878
O           0.32164160489230   -1.67879073480032   -0.54510010897801
O           1.92007256366681    0.10776574539860   -0.19972867136729
O          -0.36098819842271    0.61560946103429   -0.79718094744273
O           0.53458915397243    3.48864853472289    2.96814208113235
H           1.37453625086596    3.94333060952696    2.87307910582179
H          -0.16112311734031    4.13323093394408    2.82096961128185
O          -0.05001396570781   -1.57068140343370    2.06390981849194
H           0.04442095654711   -1.68628215047406    1.08692005481397
H           0.55816434370914   -2.20003609931153    2.45484640504266
O          -2.15318343744880   -1.29454887039336   -1.43885686216702
H          -1.95678553993163   -0.36153265195668   -1.26520649297388
H          -1.40233242954208   -1.74270372168318   -1.00685038246043
O          -0.84529673566384   -1.44455266469720   -3.72159706726566
H          -1.50304037490918   -1.40282892414667   -2.98036749098273
H           0.40788677775755   -0.73341200377058   -2.99029283243271
H          -0.63298352051833   -2.37285644319288   -3.83967340784620
N           0.38910461645573    1.01879620739110    1.63383723986322
H           0.40825518733284    1.85877448429556    2.22555191422287
H           0.12505710445335    0.13731319086599    2.12426817013023
H          -0.22893030183448    1.09785502030331    0.78577683754778
H           1.29416431125974    0.80523982447908    1.13078952387273
