    23
        -45.36549705  Gyration_radius:  2.39377659646 Dipole_moment: 7.514
 S          -0.48913798194454   -0.63337192990838   -1.36604701956305
O           0.76923939188672   -0.20954656907264   -0.46578746971575
O          -0.68057123854120    0.39183979807699   -2.35149297268871
O          -0.13257609754910   -1.93823236388873   -1.87073167438390
O          -1.60531241437984   -0.70013926206857   -0.39544877187134
O           1.29386580286852   -2.97900233032707   -0.00189140068561
H           0.76944360490342   -2.71576252758996   -0.80999704754510
H           2.08670158651570   -2.43908837216965   -0.04646166747324
O          -0.21454506972641    3.42809142955651    0.59825759849534
H           0.32826618034122    4.17198547006714    0.86135803419909
H           0.09146245386614    3.16571049050421   -0.30193447644360
O           0.77498095969503    2.48568507090650   -1.69326839014077
H           1.60167382860854    2.01704717463561   -1.55929065542193
H           0.15551050006200    1.80652360547850   -2.04173951909354
O          -0.54483147758548    0.94954154569833    1.46541870662419
H          -0.44000388947611    1.91605821641856    1.31412919661652
H          -1.33460166618302    0.69945110123542    0.96294023489172
H           0.40129608599651    0.33306015216129    0.27713425015236
N          -0.56697700035909   -1.96796736573524    1.52589732386902
H          -1.13636787360466   -2.63541190924799    2.03552023838665
H          -0.25754457010827   -1.20705661481937    2.12975308541944
H           0.26109795583282   -2.44428441592824    1.03664021064571
H          -1.13106907118826   -1.49513038396153    0.69704221571493
