    23
        -45.37283358  Gyration_radius:  2.32763245254 Dipole_moment: 5.579
 S          -0.20191070318192   -1.13193330521891   -0.00366525308585
O          -0.81790344862853    0.26931559623629    0.36114646316062
O          -1.34069829759729   -1.95431795174614   -0.33218837619289
O           0.63350396776908   -0.85754874403518   -1.20308462823261
O           0.60419269807080   -1.58581299954546    1.10036192549125
O           2.80861877609478   -0.01306314437674    0.09031627671610
H           2.91915148542702   -0.66095889458059    0.79187881579896
H           2.12342741515054   -0.39145218469549   -0.49276280359094
O          -3.00187656123820   -0.27664282615593   -1.34795692769752
H          -2.47130183765381   -1.04166479725415   -0.98790199929864
H          -3.25989386655000    0.22058127727441   -0.56757202233725
O           1.03304792270177   -0.11343442624471    3.27340223363595
H           0.37850906337817   -0.34881248791220    3.93185968630552
H           0.91234158351680   -0.74577230160278    2.53348600013781
O           1.09806615938415    1.66494948774312    1.25349153483576
H          -0.07499118935541    0.87124081610797    0.72984922280420
H           1.12746715665474    1.29773698002713    2.15808820060332
H           1.85854336183902    1.23435814680235    0.79639666799712
N          -0.86807255532590    0.74279106021552   -2.44844941061237
H          -1.82268699253333    0.41346423637026   -2.06864356356050
H          -0.82905015724566    0.68767958863841   -3.46136991050128
H          -0.65974878673779    1.68304230095327   -2.12493802553261
H          -0.14873520384383    0.03625456294735   -1.98174409686157
