    23
        -45.36549715  Gyration_radius:  2.39357508501 Dipole_moment: 7.519
 S           0.77964136071608    1.37508848339747    0.07578030972881
O           1.09630637850682    2.23287676567842   -1.04152017596705
O           0.50277074201908    2.03652694177714    1.31861658170149
O          -0.56208680084151    0.62364569433538   -0.38132952870274
O           1.76034349265027    0.27602670756332    0.22663284672394
O          -1.44300014713495   -1.43025454109418    2.83333149350799
H          -1.55849761740258   -0.45555744372873    2.73584375248588
H          -2.27961850902347   -1.77037271507907    3.15220906770248
O          -1.79257579225227    1.15160670369943    2.25913776701119
H          -0.91347019602215    1.54332195556536    2.05885650578163
H          -2.30272128656620    1.27166036714404    1.45516590630981
O           0.25959856644674    0.93711262724299   -3.09877892032604
H          -0.69178062606327    0.98337559407864   -2.97717724699914
H           0.62787045972313    1.55767877631117   -2.40848438891954
O          -0.01910694400082   -1.72098281875938    0.62155733126325
H           0.81389389338981   -1.31362166080832    0.90249973209615
H          -0.55993610904114   -1.79010714554820    1.44060153504598
H          -0.51987363523009   -0.27867462048457    0.02606541322023
N           1.36804503958170   -1.08084098068555   -1.86665799144449
H           2.16485321174730   -1.50328572291470   -2.33146887438147
H           0.87994876756826   -0.35870662495482   -2.49292627096762
H           0.71508687846235   -1.78906759138784   -1.53280892339094
H           1.67430887276426   -0.49744874134269   -0.97514591149399
