    23
        -45.36549707  Gyration_radius:  2.3932170963 Dipole_moment: 7.523
 S          -0.58888022633846   -1.15033357083900   -0.91438713509915
O           0.33448811533809   -1.76498434092379    0.06650719936530
O          -0.19875731989789   -1.43312371281642   -2.27543384668002
O          -1.96692627072981   -1.38682013363980   -0.59232493781111
O          -0.31794605013546    0.42286705434331   -0.75334514378135
O           1.71639817378499    0.21708919500209   -2.74544084864731
H           0.99489733423489   -0.47283141953755   -2.71970171717175
H           1.24518550180610    1.05364693466902   -2.76021917885718
O          -2.95930882961875    0.77744238126257    0.53391288804805
H          -2.72395728661669   -0.10508314478704    0.17051380351258
H          -2.65700594388641    1.40307337662468   -0.12804245216936
O          -1.67724715513221    1.09321442317610    2.85215838966669
H          -2.23914403725501    0.93031292200754    2.05802543215401
H          -2.00474244782556    1.89861809579343    3.25387901712049
O           0.59118393624910    0.38232794802516    1.69004303745478
H          -0.04504890187164    0.55611927986572    0.18989231479513
H          -0.14828967307879    0.70973792002398    2.25072948626128
H           0.46002025054942   -0.57596939431654    1.63348616440279
N           2.47986944255600   -0.50131644446567   -0.35359228584821
H           3.36062449464497   -1.00199168888905   -0.29880357968747
H           2.30315461114120   -0.11567823630959   -1.33937659667720
H           1.61486879820121   -1.16996313272323   -0.16939049702742
H           2.42656346387886    0.23364568845809    0.35091047667249
