    23
        -45.37719469  Gyration_radius:  2.33880000207 Dipole_moment: 4.171
 S          -1.01851454127754    0.53011635942246    0.03280440774327
O          -2.09700094421495    1.07339740173310    1.00068243628641
O          -0.09582569696175    1.62039126331714   -0.28811663501368
O          -0.30305154804065   -0.56049798124876    0.70100535793459
O          -1.72692473931169    0.04529357581925   -1.14364023720554
O           1.44687699441921    1.13543024538398    1.80256931347286
H           1.07638980855617    0.24301958362915    1.71471586895081
H           1.10823440119630    1.57825734258854    1.00174116487829
O           1.80856567370680    0.38227331092816   -1.59531147313299
H           2.40032248372993    0.14820081125563   -0.87592449461399
H           1.11889457294998    0.96342142776047   -1.19178115395032
O           0.00209634481183   -2.98667077275597   -0.23370714012828
H          -0.75573261116576   -3.49933550834689    0.05219162530187
H          -0.07389014976896   -2.11744916201738    0.23154407687636
O          -0.72940655107565    2.09627645895190    2.97381197634723
H          -0.70639170453237    3.04906371062336    2.86178932305238
H          -1.63598629184621    1.43945199082989    1.80440981435138
H           0.17208872152957    1.76497797250647    2.73853639487795
N           0.00831427856164   -1.40457389537748   -2.35798915206137
H          -0.11296931914962   -1.66786299765239   -3.32934644917818
H           0.85425898702789   -0.79341240272932   -2.20842868626074
H          -0.80910503718378   -0.81243823523968   -1.98186305877598
H           0.06875686804167   -2.22733047938677   -1.70969324974538
