    23
        -45.37703257  Gyration_radius:  2.31061566687 Dipole_moment: 2.510
 S          -0.25368394128816   -0.74706432859328   -1.00855119285875
O           0.31327009578166   -1.53241123273515    0.08993747669144
O          -0.28725597958161   -1.65508806638019   -2.27854795848937
O          -1.62491301580322   -0.37073273313259   -0.72210265245629
O           0.59208139536923    0.40677118107710   -1.31629017059978
O           1.79685105940902    0.65728081212482    1.06846350258310
H           1.43331499761322    0.69503396447524    0.16296238979956
H           1.96276540305825   -0.27808561527940    1.21384239823252
O          -1.27918288144642    2.19683796092342   -0.04030407215283
H          -1.55603231683172    1.31848658441735   -0.36495065152557
H          -0.50043418678581    2.40749482982888   -0.56265552291333
O          -0.40238464125609    1.44450620069943    2.36470656187757
H           0.51985472527137    1.27065218643392    2.06690836514211
H          -0.80631925957019    1.92630652849969    1.60601718573376
O           2.21007110461751   -0.98952165634573   -2.85813298557687
H           2.37033060297606   -0.57065729007051   -3.70676459478234
H           1.84694538537492   -0.29828249775570   -2.26921662146858
H           0.63678448836873   -1.68548731848150   -2.60221033492540
N          -1.41884686173330   -0.86303333052735    1.87175296607406
H          -0.63193556918111   -1.30214413458388    1.29837838154416
H          -1.03477997731102    0.10969514696344    2.21962006955975
H          -2.12615882983355   -0.68029361079695    1.15040374517396
H          -1.76034179721827   -1.46026357075999    2.61673374533645
