    23
        -45.37703259  Gyration_radius:  2.31075350231 Dipole_moment: 2.511
 S           1.13593740256716   -0.14409424944629   -0.57295649839748
O           0.47323389827480   -1.26212679945814   -1.21696746148327
O           0.51645891532776    1.12497145278113   -0.96117736453246
O           1.17834491343140   -0.28033000891082    0.88350063345636
O           2.61096107785669   -0.13330104792400   -1.08546632536002
O          -0.85791029534101    1.35884553397466    1.49039691427880
H          -0.63064229611254    2.06030238441161    0.87402594910209
H          -0.11292746646996    0.73155097366768    1.41984336859338
O          -2.75124258631493   -0.22597834900658    0.47003346732675
H          -2.30429600991598   -1.07750557874899    0.68472369728800
H          -2.23746963941546    0.44250884594415    0.97847900819428
O          -0.98397643614527   -2.19218803093172    0.82958333360737
H          -0.42731604284878   -1.92844881635382    1.56738983145329
H          -0.43283543770763   -2.02538295196007    0.04094987256871
O           3.39864544207578    1.12037033913548    1.11050085952545
H           2.54500426836259    0.68532837726628    1.30678971558515
H           4.05967912644232    0.68568557047378    1.65393765239981
H           3.09923980758099    0.44501725155135   -0.46355451060229
N          -1.68913728664530    0.13331041293695   -1.84163291834318
H          -2.22878574512226    0.49408272919366   -2.62070145748660
H          -1.23144639150894   -0.76102212199392   -2.05302102844916
H          -0.85581106716794    0.74726881977542   -1.57800680003510
H          -2.27370816120206    0.00113525362242   -0.91666991869147
