    23
        -45.37703264  Gyration_radius:  2.31068702437 Dipole_moment: 2.509
 S           1.20544115863061    0.08949564965550    0.42173433706275
O           1.52683855349720   -0.20043718053368   -0.96266422058656
O           0.42569652052877    1.31875558146971    0.57101294120188
O           0.52013597523657   -1.04346527698924    1.04749170458507
O           2.56056432276522    0.30109598483597    1.16818506558875
O          -1.99963827144112    0.21107072494418    0.87211981448426
H          -1.73300010479714   -0.49281121977534    1.46958611594747
H          -1.19151306506637    0.74847366730933    0.76410472217696
O          -0.38065480411010    1.21735350304889   -2.19848036648957
H           0.41828111962225    0.75188940165857   -1.88453171779637
H          -0.51568393215741    1.91688005804066   -1.55335888106296
O          -2.16410083722646   -0.68614238986431   -1.63866075326204
H          -1.65449597475374    0.05091539339080   -2.04860846782465
H          -2.34462487043506   -0.36589714233328   -0.72526467276487
O           1.36172420669491    1.81023581653409    2.98491808439220
H           2.32832003237338    0.74092503595713    2.01208948237006
H           1.67464235069210    2.71185427508567    3.08704553414116
H           0.79573879474138    1.79941155875755    2.18741399115026
N          -0.17103218584580   -2.22589591753712   -1.13140725882892
H           0.61370521847066   -1.80194042379021   -1.63977053276459
H          -0.23133142333083   -3.22935985242027   -1.26468929827601
H           0.04222155079022   -1.94035798942965   -0.12451401940024
H          -1.08723433487633   -1.68204924800870   -1.41375161404498
