    23
        -45.37719482  Gyration_radius:  2.33948346949 Dipole_moment: 4.183
 S          -0.28656174510152   -1.11149558107902    0.03925930550240
O           1.15925051140313   -1.15100973789556   -0.18813145534404
O          -0.66835326471246    0.15970040764349    0.66021944706846
O          -1.04151987452351   -1.34188709749611   -1.18468408939328
O          -0.65871534808403   -2.26063314990102    1.00654654519577
O          -2.20797446235587    1.98240083592868   -0.41605211373590
H          -3.11209386865863    1.76338891039119   -0.18482262351654
H          -1.64236206328925    1.35665368183480    0.10016099406288
O           1.59279792920404    1.06134995089601   -1.52475171992537
H           1.53873048569396    0.16990547843800   -1.10208657184956
H           1.77473578435976    1.67459951819236   -0.80845400171352
O           1.68887281853694    0.36300464401603    1.91122396965798
H           1.83618195984914   -0.19928165487980    1.12705652624704
H           0.78521837814930    0.68373614775992    1.76582863283538
O           0.88783965416003   -1.88130963275584    3.07391807264665
H          -0.13089984161040   -2.14411796457253    1.84335486801916
H           1.62033044782154   -2.49861714380920    3.01670143724886
H           1.25354420831381   -0.99146270312239    2.84518231585444
N          -0.88822955455114    0.89273130923313   -2.43759533446233
H          -1.01487400626616   -0.10357996339483   -2.04768448288603
H          -1.50153883017192    1.49837119684995   -1.83929266932028
H           0.11971845476631    1.12073005189898   -2.22992194817416
H          -1.10409774293154    0.95682250579888   -3.42597511401743
