    23
        -45.37992113  Gyration_radius:  2.36389404753 Dipole_moment: 3.339
 S           1.02300835558948    0.41471017712510    0.71058357112597
O           1.68281477525999    0.05774938295490   -0.52397311167701
O           2.05629982860492    1.06973998774041    1.67903292756107
O          -0.03025881465298    1.39907999592708    0.50357197697068
O           0.48697721935230   -0.77991820780833    1.39349374531900
O          -2.64862022598054    0.99974877375819    0.07797770004347
H          -2.66733667053503    1.44050511536994   -0.77827211318032
H          -1.80177074322793    1.28253934181902    0.47656651486233
O          -0.73048668266047    1.83780467413813   -2.02168483410768
H          -0.13647211520352    2.45359071025883   -2.45301915836843
H          -0.39588998579085    1.74440146958888   -1.10137994694819
O          -0.05756356354883   -0.77564746768019   -2.31555981239133
H           0.74764672489219   -0.59322534645499   -1.77958504485022
H          -0.40079805310454    0.11808665151994   -2.50884875651135
O           2.84301936106819   -1.34654096309687    2.41678168459699
H           1.94242059555624   -1.41737328781991    2.04207721229311
H           2.61616578669408    0.31797919455927    1.95732801526122
H           2.76379099373022   -1.52459460460067    3.35680795648388
N          -1.48475561435633   -1.37095859008268   -0.22472531989283
H          -2.13682703163488   -0.54953589680207   -0.11155563252544
H          -0.97562563419803   -1.26202642461347   -1.16911105647632
H          -0.73218067313546   -1.25568661705645    0.51125800214071
H          -1.96355783272131   -2.26042803874305   -0.13776453972398
