    23
        -45.36457373  Gyration_radius:  2.45199642936 Dipole_moment: 3.549
 S           0.73299958288612    0.32198175773868    0.81149356305081
O           0.63726084051609    1.75942768795653    0.89736387828144
O          -0.66647602673954   -0.28055587782799    0.74746468586784
O           1.53374958131980   -0.15861022488455   -0.28336071754968
O           1.29021200938470   -0.24066738961210    2.12672304219107
O           1.09183836716291   -2.54420941152428   -1.37170007121560
H           1.26439819807215   -1.70765991685022   -0.89287532931589
H           1.89052730891178   -2.73157024516565   -1.86861758976173
O           0.37946334539448    1.93840577774954   -1.78899957666939
H           0.46653783756415    2.18877022280172   -0.85394354192865
H           1.08949229956273    1.30506272942804   -1.93464039519458
O          -1.14000390470511   -1.89960555461718   -2.70101231656265
H          -0.30738351582374   -2.17234141190982   -2.25222113270749
H          -1.78149282535175   -2.58503585402036   -2.50698397373490
O          -1.70580883287287    0.33203986767765   -1.40497474716179
H          -1.06422504663408    1.01566898236472   -1.71391153386050
H          -1.55617611820238   -0.46725205211099   -1.97509528408025
H          -1.18645603144006   -0.02135458355362   -0.17755193773643
N          -0.25997727940939    1.23515029433493    3.53686802966278
H           0.74198000024392    0.23543138516130    2.85023042287331
H          -0.19402961149776    1.90428970893044    2.77450541596099
H          -1.20418715170195    0.87433981958419    3.56952685401509
H          -0.05224301672640    1.69829425836067    4.41171225567282
