    23
        -45.36462776  Gyration_radius:  2.41696070028 Dipole_moment: 3.620
 S          -0.01089389135326    0.90822083767445   -0.62551593319784
O           0.28115852406725    1.08412899597715    0.85642303701953
O           1.12531879729853    0.27967725133791   -1.25921938707175
O          -1.25803919652253    0.21831515222501   -0.82462499339632
O          -0.14612079415643    2.34973947499141   -1.14200176988168
O           0.05030530350388   -2.84979581752194    0.89836695451017
H           0.01356917149203   -2.65310450679571   -0.06915099035857
H           0.91669508203718   -3.22531904019208    1.06078316514756
O          -3.04492815681627   -0.48217345054805    1.04909118176468
H          -3.41355088813691   -1.31603834130104    0.75022258324350
H          -2.53539547709231   -0.12208052347224    0.29762854660704
O           0.01824717060390   -2.12303779779519   -1.66152375318753
H          -0.85671504595858   -1.74597743540222   -1.79527384632336
H           0.60410366230677   -1.34423585830631   -1.62673756417571
O          -0.68931476543609   -0.69910629126939    2.24952212008982
H          -0.39056295041273   -1.54220801487075    1.82332053598852
H          -0.13285143939376    0.30418572283055    1.51277395748024
H          -1.64639896602509   -0.61665095613251    2.02024317868000
N           2.34175631900632    2.78627139731923   -0.68853721082115
H           0.79156437206954    2.72947615134459   -1.01824762668261
H           2.47878535450784    1.80688353720842   -0.92171522042432
H           3.01365128714500    3.35114576485170   -1.19121819852223
H           2.48961652729971    2.90168375794148    0.30539124353832
