    23
        -45.37992112  Gyration_radius:  2.36371455237 Dipole_moment: 3.335
 S           0.96911684727040   -0.09283049087067   -0.88145113745386
O          -0.18628708339942   -0.16489336195919   -1.74558544800792
O           1.08665523443882    1.24110989429859   -0.25868413447231
O           0.95547814194556   -1.13215682012259    0.13872551023766
O           2.26173248713636   -0.31896965275771   -1.72558651675481
O          -1.32825352399928   -2.46179286094575    0.41400407680583
H          -1.40972364657434   -3.16530444826663   -0.23141528724913
H          -0.45952699454550   -2.03583182882043    0.23627169537324
O          -2.41543669028881   -0.09320166857284   -0.34581762183635
H          -1.72591517445853   -0.03979403982013   -1.04622109119245
H          -2.33290485440431   -1.01169033419418   -0.02421928010158
O          -0.00565578075162   -1.02248064596057    2.64133324556972
H           0.60031519566711   -1.10946100463628    1.87902902563245
H          -0.64093223114552   -1.73676139370018    2.52276589893962
O           2.20744011727997    2.23331881816200   -2.42179009468676
H           2.99515644644629    2.73114877813480   -2.19113458298700
H           2.34158089717348    0.50515608736444   -2.24561904959737
H           1.69199209215307    2.12772998586520   -1.59734763123069
N          -0.93477076572042    1.13802541135101    1.40209119079126
H          -1.24848293244104    1.97939470650048    1.87287610007329
H          -0.09336679986701    1.32222669564119    0.78614938093153
H          -0.64586328041026    0.38160037669332    2.07814761285739
H          -1.68234769143384    0.72545780662432    0.74347814832984
