    23
        -45.37771064  Gyration_radius:  2.3505544155 Dipole_moment: 5.319
 S           0.12077936335850   -0.75517048499921   -0.91790102711702
O          -0.03266579024283    0.55231794762083   -1.56070635349501
O          -1.10362604514514   -1.53480331711297   -1.00101797930219
O           1.22835081998464   -1.53352583213575   -1.66855852443657
O           0.54924699725692   -0.57718348472311    0.47281469949129
O          -0.75889015001275   -1.31844869024167    2.62342495324768
H          -0.17846554575235   -1.15285815854841    1.84216924670492
H          -0.31900940184194   -0.91376528460860    3.37261024259208
O           2.19657975074183    1.96745143778795   -1.54305475456405
H           2.41203137183183    2.18813425962839   -2.45065426990588
H           1.32440478785172    1.51424804847740   -1.57516348501940
O          -1.51627765940246    1.80812778862438    0.18544406880311
H          -0.84742469673144    2.16895816169002    0.77156791073034
H          -1.01011138224946    1.41783447848544   -0.56903477497589
O           3.08658332058683   -0.29503963343554   -0.38756022257934
H           2.08355309458165   -1.16827218853678   -1.29885297702697
H           3.01170861084085    0.60110543338300   -0.77662365663688
H           2.41028840327715   -0.32265041520712    0.30667568298222
N          -2.57427375613473   -0.52912711636700    0.85304596982980
H          -2.09923078429968   -0.85673138884236    1.72404253419020
H          -3.57446107122337   -0.69467125045414    0.86145354414040
H          -2.32646451215317    0.48287243154035    0.68758302082737
H          -2.08262572516165   -1.04880275200578    0.04829615151120
