    23
        -45.37719475  Gyration_radius:  2.33978085669 Dipole_moment: 4.192
 S           0.55829580767004   -0.73892104939577    0.68040767266865
O           1.01521563447591   -0.97912555478424    2.13917542701027
O          -0.64186222918988    0.10145627443762    0.70225206674494
O           1.64034609054854   -0.05980417119267   -0.03505367364138
O           0.26687092978442   -2.05042302647673    0.11815957638458
O           0.52578415115275    0.55776968310917   -2.32511562301634
H           1.07046668376946    0.30790356219771   -1.53949211112403
H           0.17890991307834    1.43172215870276   -2.12980129630944
O          -2.92567422303779   -0.46808843645062   -0.44255149908465
H          -3.44477721438090   -0.96608833303081    0.19099519325489
H          -2.12574433226167   -0.16147986729278    0.05147629045770
O           0.81712764981392    2.34571031135299    0.68221371065210
H           1.36886200823405    1.64815315064435    0.27991262385019
H          -0.04343921321495    1.90556853292079    0.76099671550196
O           1.71324846806298    1.38811517381426    2.98685158092183
H           1.37579668306434    1.93802869282873    2.23746055918051
H           1.25307890040946   -0.09785225078373    2.53802974269929
H           2.67065130143566    1.44616343693282    2.95640280864526
N          -1.07262164440363   -1.53075458403732   -2.00859503767836
H          -1.97667360870982   -1.19339630567314   -1.59655397977435
H          -0.52076332589493   -0.69718405617332   -2.34282957718282
H          -0.50468445564232   -1.89951148607134   -1.17071798580224
H          -1.19841396477234   -2.22796185557607   -2.73362318434700
