    23
        -45.38023208  Gyration_radius:  2.32656072218 Dipole_moment: 3.132
 S           1.23369586647942   -0.71307208245564   -0.09803341572668
O           1.33722165079488   -0.45270868135815   -1.50975315567672
O           2.59928602192068   -1.28702015881970    0.38854963847688
O           0.95993359286835    0.50355995219032    0.66625522286979
O           0.20295039560642   -1.72553282918718    0.20938684834138
O           0.26247166442436    2.60936211763625   -0.78227300926304
H           0.61226502903994    1.85138104803247   -0.25963158787158
H           1.03250781495332    3.06536497978886   -1.12450605398862
O          -1.43913383214661    1.44851674913419    1.36234350369124
H          -1.34044377818216    2.30495866223535    0.93364693794131
H          -0.53081074393643    1.08184309487526    1.38175720895490
O          -0.79188936721536    0.78635522152510   -2.48272610527389
H          -0.56042183117952    1.63610437141727   -2.05774190147844
H           0.02895047713423    0.25844404275173   -2.38143490394053
O           1.36484608676185   -2.34420847401998    2.47708926837150
H           0.71049194532651   -2.20008228301031    1.76320815738590
H           1.46727433774724   -3.29425434260049    2.56797285792811
H           2.40427551301413   -1.60627046106766    1.29225809912925
N          -1.94893822645387   -0.39741551170077   -0.47153660757254
H          -2.83673440517255   -0.87681141429131   -0.57119619967534
H          -1.62756666395646    0.07425724229872   -1.38442628693845
H          -1.96985509529293    0.34017367072118    0.28466381859948
H          -1.17037644252096   -1.06294492408563   -0.20387232428015
