    23
        -45.37992105  Gyration_radius:  2.36425894462 Dipole_moment: 3.341
 S          -0.93641408066847    0.57019344967177    0.72195362202540
O          -0.59178713128694    1.51996678353937   -0.35509339173794
O           0.25903552317430    0.17298062365893    1.45297140158884
O          -1.84022506505855    1.33729837668887    1.73621352440916
O          -1.65817243137777   -0.56835758921571    0.20239625274524
O           2.77464811339387   -0.08104113420576    0.55594552893307
H           2.85400057302931   -1.01419011339222    0.78123561639602
H           1.98912778677987    0.22131499541876    1.05332878715954
O           0.99627710090389   -2.36587687095541    1.18920024392397
H           0.65974712423781   -1.45777300615385    1.36186163395967
H           0.50631770790746   -2.94106449558374    1.77860259255054
O          -0.09361350183847   -2.07963985478416   -1.28083670736090
H          -0.85311309051813   -1.61997868935120   -0.85552197633255
H           0.38716920372360   -2.46085340654725   -0.52098219186105
O          -2.99303230977808    2.59077184415761   -0.28881288865911
H          -2.50867876191887    1.76784615000481    1.16711139913474
H          -2.93082869521524    3.54822344494140   -0.25777757058403
H          -2.12079051979541    2.26319703651933   -0.58626753906784
N           1.24080258419687    0.12874915132831   -1.60493312981332
H           0.74598025993668   -0.82897441157930   -1.63362010699572
H           0.52463455639194    0.79970531378208   -1.20730406895784
H           2.01776030534947    0.07081880633998   -0.89366310581041
H           1.57115471841606    0.42668358579293   -2.51600793566898
