    23
        -45.37992101  Gyration_radius:  2.36435542163 Dipole_moment: 3.341
 S          -0.01823597586568    1.25498443936655   -0.38445621297669
O          -1.06586145985209    0.87409133397008    0.55285236748614
O          -0.15964177661402    0.58688188534167   -1.65751950873809
O          -0.14883772282888    2.79592097587875   -0.59121294748734
O           1.31444403018097    1.00859166165024    0.20224227925455
O          -0.25562973502599   -2.02566493213000   -1.34390012031515
H          -0.14871717489466   -1.10819159241909   -1.68415300459477
H          -1.16919399624182   -2.02787885441757   -0.99850243758044
O          -1.04379115780806   -1.06660183958653    2.40524355108720
H          -1.08263075207801   -0.18923698684771    1.97559721461503
H          -1.79863330212204   -1.54255982956661    2.04261216493090
O          -2.55129591713198   -1.21575493710544   -0.14246357254383
H          -3.25407320927692   -0.96743933347108   -0.74461349581733
H          -2.06531818816435   -0.38421375540011    0.05796228705610
O           2.40399304067932    2.88753143618495   -1.28077003411679
H           2.25573138311162    2.07450463970882   -0.75770154839494
H           0.68666651802938    3.03866028745107   -1.03744804646203
H           2.94588885581976    3.46683878831458   -0.74014459624903
N           1.05844307732309   -1.51734199592207    0.84179068534408
H           0.31785059643777   -1.49585543864719    1.59263738018531
H           1.87214488254881   -2.05663996935645    1.11565399028637
H           0.60144870590251   -1.88315042702763   -0.06395028493941
H           1.30524927782022   -0.50747554591790    0.64024385997461
