    23
        -45.37992092  Gyration_radius:  2.36354204964 Dipole_moment: 3.335
 S           0.36457841351076   -0.16538769287124    1.25077300051471
O           1.34926590863715   -0.57219311211933    0.25775172599352
O           0.12606538764713    1.25921547414187    1.22714938872746
O          -0.89248773262463   -0.91932262925124    1.07133344155696
O           0.94576946936876   -0.56959428414650    2.64118883482953
O          -0.57067964226340    2.05685158354179   -1.18354345386734
H           0.33172453021692    1.98708995841128   -1.55044913327532
H          -0.42503930059284    1.96018457319142   -0.21484911639377
O           1.99779291304560    1.25946167717880   -1.55477765447721
H           2.65847414780360    1.86921810926512   -1.22350639285618
H           1.82877966318761    0.62499910866480   -0.82234856791816
O           0.95479967126371   -1.42520366922920   -2.25480303361342
H           1.21267476199774   -1.39035432426863   -1.31235452650280
H           1.46823411280660   -0.72278079435420   -2.66804100817493
O          -1.51610855644761   -0.62163482202246    3.61003684125258
H           0.18111789725231   -0.47608249714598    3.24330000919136
H          -1.56509666672873   -0.72466361886879    2.63878446358467
H          -1.78365551301479   -1.46197423584169    3.98924748450280
N          -1.36484412913523   -0.40497970571266   -1.45211786644573
H          -1.30489843848246   -0.69588859208565   -0.43572006328614
H          -1.16720826080428    0.65507928779752   -1.45464496314955
H          -0.56477861564536   -0.88506209520727   -1.94435789826072
H          -2.26448001097653   -0.63697772908988   -1.85805150193213
