    23
        -45.36077198  Gyration_radius:  2.47119472121 Dipole_moment: 6.060
 S           0.85862069238745    0.40949120551217   -0.46508007443002
O           0.46519201954955    0.33524124892261   -1.84570072019027
O           0.41440892334223   -0.91611242196302    0.19431494306253
O           2.39842783538166    0.36929211789617   -0.36368979660036
O           0.37711164475066    1.51942973722207    0.29159003584342
O          -1.28883565340214    1.48615334881816    2.44069752021312
H          -0.71978899480822    1.81015728867156    1.72458929244931
H          -2.12534326541835    1.23957994015598    1.99493485046287
O          -3.32437234524864    0.88071992878104    0.76314765386532
H          -3.72679922164168    1.64772504954758    0.35318202539490
H          -2.91227778870103    0.36993264803270    0.03806666716907
O          -2.04044123580874   -0.50844890670190   -1.19960002383547
H          -1.24825042903999   -0.10301191744178   -1.58677461727294
H          -1.72702915122616   -1.29065015425579   -0.73785519201941
O           0.25225936017326   -0.56208927863763    2.67333437064228
H           1.07255840621638   -0.17102499928955    2.98238746322592
H          -0.43239339963066    0.18265729470571    2.70220841530746
H           0.35181388064519   -0.82056096875417    1.22952894165740
N           2.72990923532367   -1.26742483384256   -2.31194468502119
H           1.83453573352835   -0.93269835478266   -2.65843994864480
H           3.43500525064666   -1.13233559626781   -3.02425452169294
H           2.69947990818400   -0.29115493381988   -1.08800889415596
H           2.65620858480090   -2.25486744249629   -2.10663367543346
