    23
        -45.36077188  Gyration_radius:  2.47154818024 Dipole_moment: 6.062
 S          -0.91165553117937    0.50412046628791   -0.18690965992201
O          -0.26099312916235   -0.86673343640004   -0.48138632575450
O          -1.53591599512417    0.39557154810733    1.10343458682503
O           0.04424061519191    1.54895015977162   -0.36312881358582
O          -1.99711445267557    0.63436881252289   -1.27669021405529
O           2.70321298121828    1.31822592003064   -0.88518312084721
H           3.01159511102044    0.98320606789741   -0.01807938257711
H           1.83423484144270    1.70773164457163   -0.69866991457243
O           3.06231652203137    0.50090470354029    1.66967095776553
H           2.23116670231504    0.04411197055315    1.90849028344532
H           3.15972662195752    1.22048142962166    2.29497253491507
O           0.68654332225893   -0.72342769252107    2.20551480640138
H           0.68892488770196   -1.46937148250431    1.59987659674393
H          -0.12471066119503   -0.23038648644710    2.00377716068538
O           1.52802953358898   -0.54812141183402   -2.21195659932953
H           0.47774578976567   -0.78512399920630   -1.21100829145411
H           1.15466108700141   -0.07056371475515   -2.95616309924311
H           2.12281813824750    0.11603352423635   -1.73300539884898
N          -3.67593136176930   -0.93999611761328   -0.14199110103301
H          -4.65982381001733   -0.72067560333443   -0.06025313322456
H          -3.20642035918543   -0.70530829903165    0.72881214136032
H          -3.57425138299075   -1.93112718271959   -0.31514675007131
H          -2.75839947043784    0.01712916924270   -0.97497725361477
