    23
        -45.37219168  Gyration_radius:  2.45815250706 Dipole_moment: 6.217
 S          -1.00779395600037   -0.01184232300953    0.20474628291118
O          -0.10941846849272   -0.93703299060528    0.91223377144983
O          -2.36874981721514   -0.03186358854613    0.94830742359633
O          -0.48997315689398    1.34878724368529    0.23081497043981
O          -1.25998802274881   -0.47124860552260   -1.15935463891840
O          -0.24639832069112    2.31409266207802    2.69134543091942
H          -0.77730034369102    3.11222163762117    2.70880566844037
H          -0.23327207141622    2.01940794984704    1.75522129432350
O           2.48184731798577   -0.52113020370804   -2.30730648398805
H           1.87807466529059    0.26338349676986   -2.22924883557417
H           2.86649941866952   -0.47563673163318   -3.18388998910906
O           0.60360880254765    1.32830305102985   -2.18679463084342
H          -0.18268158322185    0.88239415015875   -2.51989893482432
H           0.35798064387011    1.53307146305354   -1.26258419118645
O          -1.23992523691559   -0.11303432171555    3.25336222738129
H          -0.87698995700227    0.79753008861178    3.29911098072050
H          -2.12453441755694   -0.05530486097563    1.92192974220025
H          -0.56762999647640   -0.62583622645700    2.78179724864057
N           0.68619302369184   -2.12168348160907   -1.19560995628985
H           0.66912870946588   -3.12545603015778   -1.33541565047715
H           0.63706553678336   -1.83542039502523   -0.17342251749714
H           1.50535817144987   -1.64949123098105   -1.65724024272451
H          -0.20110093142236   -1.62421076290883   -1.49690896959187
