    23
        -45.36077192  Gyration_radius:  2.47158621526 Dipole_moment: 6.071
 S          -0.03706846842388    0.48597312500978    0.93784007859109
O           0.68005013389658   -0.71450775995487    0.27930853839405
O          -1.40442344085355    0.52428494239371    0.53109034870791
O           0.02406767934213    0.16478405284699    2.44641838398910
O           0.76348629921544    1.64726672693930    0.66033320253718
O           0.97119026851760    1.00708297448937   -1.97653392461334
H           1.38751385409329    0.15857449875077   -1.80347360905962
H           0.89041718640428    1.43607041947210   -1.10973267855446
O          -2.65125231339335   -1.04700710977024   -1.30540077896985
H          -2.49585731094786   -0.35647803186733   -0.64155938564098
H          -2.24637259478302   -0.69347421165764   -2.12411441324735
O          -1.33583925316199    0.30411905483128   -3.24677909292631
H          -1.77253543018075    1.11459213783860   -3.51303230804114
H          -0.48882505986664    0.57356268671123   -2.83865305267340
O          -0.98854794044278   -2.55941944511723   -0.05130275297113
H          -1.66235783758719   -2.08630369198900   -0.63991233259558
H           0.02757168085915   -1.51412343781813    0.13979502301059
H          -1.43959641833159   -2.71885340971451    0.78084900850642
N           2.47584303252729    0.85881335971343    2.74869226585098
H           2.78984646200913    1.42648797169852    3.52456664585223
H           0.98862396046300    0.37012044090317    2.72780963110375
H           2.34003968354154    1.45084565673789    1.93327065948394
H           3.18402583709099    0.16758906954939    2.54052054326088
