    23
        -45.37317636  Gyration_radius:  2.44785910824 Dipole_moment: 3.966
 S           1.04569413402229   -0.16926909978521   -0.61511567886450
O           0.06102628434708   -1.18330567452806   -0.19858732830779
O           2.12667533425400   -0.03624469474462    0.33427876509597
O           1.64117978094014   -0.67925321095360   -1.97798512788376
O           0.37081456161810    1.07900039055329   -0.94325892956510
O           0.17346285471608   -0.26417376180072    2.33296566356945
H           1.11654033669606   -0.07194533857238    2.32421073343986
H           0.03705153092192   -0.78721388573679    1.52417991346142
O          -0.88842581951299    1.99853060350516    1.30898525222298
H          -0.54019477425464    1.29081019515703    1.88991675377950
H          -0.36858238748829    1.91624687955982    0.49201525785729
O          -3.23117116467168    1.00887646375152    0.75511438822674
H          -3.41237044452804    0.43378962385623    1.50111952677222
H          -2.41646951777826    1.53191831881558    1.01289965302511
O           3.64745969878440   -1.88658193614457   -0.74539646015634
H           4.52452310938109   -1.54168739570171   -0.92778976748956
H           3.23918230504706   -1.27485759711207   -0.09899321230472
H           2.37572984318117   -1.28503599620073   -1.74255436237957
N          -1.94468028650940   -0.02659292237422   -1.27767958185359
H          -1.31602295222239   -0.77392319390447   -0.85546047127627
H          -2.60512794998184    0.34125034256776   -0.52132622091708
H          -1.21328136919263    0.70154878779093   -1.45034880759994
H          -2.42301309775396   -0.32188690801692   -2.12118996884174
