    23
        -45.37317667  Gyration_radius:  2.44754099069 Dipole_moment: 3.984
 S           1.08976509120619    0.14417618913950    0.54083348835406
O           1.13132776738186    0.30485627107890   -0.90609637825372
O          -0.23956433293279    0.51836252950235    1.05472527003066
O           1.51183128537917   -1.15439178977972    1.01334786775402
O           2.08778722297099    1.22412786946943    1.09766677119189
O          -0.71536718154930   -1.38663341202032   -2.01688073540284
H          -0.96643982267496   -1.80100251487989   -1.16539810848281
H           0.08726537575170   -0.87939908559216   -1.80972922563016
O          -2.61881222687636    0.37375815891893   -2.24353743475951
H          -3.33510823217775   -0.00308706909943   -1.72879861385894
H          -1.93095585959977   -0.35128550500193   -2.31505956821758
O          -1.13168459448146   -1.98138472998390    0.58447647065260
H          -1.00468426112488   -1.06825451418354    0.89481845717467
H          -0.31072396265297   -2.42108419699365    0.82781322018954
O           2.64810224688177   -0.26772707818541    3.21055534962902
H           2.20044719519957   -0.84634525070546    2.55984445145453
H           3.55150717445127   -0.58511306156379    3.27848451673580
H           2.34889641921403    0.91610566337393    1.99133659853258
N          -0.90287443157112    1.90227820373529   -0.98750453406226
H          -0.95050806467784    2.91374987273616   -1.03450037295631
H          -0.86484741237240    1.51907540197726    0.00426326509738
H          -1.69179228959663    1.41439272401213   -1.51972467828821
H           0.00643287386298    1.51482531407205   -1.33093607686183
