    23
        -45.37317665  Gyration_radius:  2.44755995257 Dipole_moment: 3.983
 S           0.53448788691493   -0.91494159434890    0.61418221741337
O           0.56647824495727   -1.08595315508618   -0.83180657882722
O           1.75617955041726   -0.39565406731653    1.18469966792576
O          -0.64375619909385   -0.12114218624542    1.00511656110844
O           0.29239911420803   -2.35867433840387    1.18815356555630
O           0.74620328127375    2.15228356179811    0.59872832739022
H           1.58379622021232    1.80944788345556    0.92650603135518
H           0.09947966678184    1.47815188657830    0.86994874051606
O           0.78636123894192    1.38656293294094   -1.99084722064104
H           0.86869797197369    1.86606106219549   -1.14050694127057
H           0.88990892930485    0.45081388056467   -1.74985364906012
O          -1.75390925435400    1.71529223766953   -2.45159578130951
H          -1.96610532941373    2.51900519855013   -1.97293999428133
H          -0.75425201418364    1.64953092279137   -2.43330408202661
O           1.60679194034962   -1.78229433749878    3.41160337056103
H           0.61640442395610   -2.33993782718317    2.11359133464178
H           2.41896067537528   -2.27100850185359    3.56335413081191
H           1.82250473630688   -1.08387166935361    2.76022085195260
N          -1.94487404526722   -0.54975674498632   -1.15108111645864
H          -1.03875785251975   -1.00812174360019   -1.40359135214074
H          -2.74600446730572   -1.16214086790381   -1.25463850299117
H          -1.71527925650810   -0.30877556855896   -0.14058631196501
H          -2.02571547236284    0.35512301577010   -1.71535326827838
