    23
        -45.37533687  Gyration_radius:  2.37547295915 Dipole_moment: 5.057
 S          -0.47630862971689    0.31947604052570    0.73402897476073
O          -0.88005213499111    0.98351522374818   -0.52782213871873
O          -0.81107375249770    1.28590270661031    1.89291120527218
O          -1.24659738390724   -0.89560211218437    0.90227976152653
O           0.96121754646669    0.07756155306463    0.73524005349819
O          -0.10965958786816   -3.28014936179133    0.82758915174522
H          -0.59465310272155   -2.43160514773322    0.93897644688468
H           0.21106534528867   -3.51324960371062    1.69991475373124
O           0.29389095493112    3.36125493463948   -0.71574903964611
H          -0.13964411630216    2.48176705733835   -0.74285287932323
H          -0.41456511779579    4.00653640934147   -0.68385880177067
O           1.32166988070827   -1.91044446244839   -0.95453756029267
H           1.01761433728834   -2.63152693081359   -0.36165005649178
H           1.39805953515957   -1.13308792826532   -0.35317747137062
O           1.37230068634379    2.59343623339945    1.62546475640674
H           1.16257849321069    3.06906883029467    0.79410315579796
H          -0.01818266494029    1.90613046155559    1.94200406460155
H           1.72643159174762    1.73589963702082    1.34427161704839
N          -0.97806750039477   -1.21677867012508   -1.86022763028657
H          -1.01459903621221   -0.22933992252793   -1.43524466994733
H          -1.64004524373876   -1.78261612569307   -1.33157029564663
H          -1.18145574882642   -1.22521348258143   -2.85467958121222
H           0.04007565877012   -1.57093534966219   -1.61541381657097
