    23
        -45.36892095  Gyration_radius:  2.3954811651 Dipole_moment: 6.492
 S          -0.10373104189229   -0.22578442231941   -1.18915373640651
O          -1.34611750206408   -0.96254737584533   -1.21205003535987
O          -0.34712847542514    1.12627605634891   -0.40358849874700
O           0.93252449329154   -0.91651068620531   -0.38443405500823
O           0.41754904820576    0.16895526870642   -2.47614927610568
O           1.69064703275750    2.34792928963184   -1.97705396164719
H           0.96470853395751    2.94275348411987   -1.77193966572740
H           1.24648598359254    1.53028611333684   -2.33562200522190
O          -0.76974896046693   -2.78169097264355    0.65417863362209
H           0.16651463724161   -2.56993995811525    0.56083768039837
H          -1.16939936960731   -2.30215856086693   -0.09613971856473
O          -1.62383492012186   -1.19409119583602    2.60900096438712
H          -2.28022044967423   -1.66605380449976    3.12399094099609
H          -1.27197513586206   -1.84600302111897    1.95304549833152
O          -2.53694210233712    0.48401857484719    0.72775858898989
H          -2.60300841316590   -0.16129033252211    0.00739853009155
H          -2.25330554469384   -0.03105110552460    1.51820595460525
H          -1.21230348093546    1.00856853606960    0.10219252691726
N           2.45315140868584    1.02410636705710    0.14269470119519
H           2.22471372227734    1.66541985484254   -0.69147837220493
H           2.13961146263676    1.44678733900564    1.01108035777664
H           1.83947453038163    0.11207354520829   -0.05311750735476
H           3.44233455270380    0.79994702390519    0.18034243437803
