    23
        -45.36823127  Gyration_radius:  2.32624634205 Dipole_moment: 7.046
 S          -0.81307729729258    0.40005828960614   -0.02718242674994
O           0.59537689484590    0.44835925020359    0.40717341620586
O          -1.66712851190586    0.91269735239443    1.03847262648299
O          -0.96329053188467    1.32926256699464   -1.25253816927898
O          -1.16841634752102   -0.95490425418910   -0.42664669652904
O           2.10660254286832   -0.24532069929496   -1.76175905216633
H           2.42731744818291    0.65745077807042   -1.89451168698357
H           1.66903109261052   -0.21235430842959   -0.89359888659200
O          -1.06380837686051   -2.46366560437638    1.71060358314264
H          -1.07345037936843   -1.99493981597811    0.83747297043080
H          -1.94076611020150   -2.83913890738843    1.81064904289523
O           1.72520891233018    2.48803668282874   -1.07871567923041
H           1.35995574583605    1.88344775662166   -0.41371974977804
H           0.96293978808603    2.85907941994960   -1.52872005932017
O          -0.25702453099185   -0.41515211386422   -2.94785131000652
H          -0.72458872779720    0.74797671952043   -2.05747652765106
H           0.70473910254251   -0.44080470045948   -2.71747875980257
H          -0.67145345816786   -1.07992247402152   -2.38075809515131
N          -0.22619022368991   -0.21934018360263    2.78213072648941
H          -0.03025310446568    0.01030901903358    3.75063100961975
H           0.55755575212895   -0.01931723790467    2.12836975474868
H          -0.51611453301675   -1.22264483657679    2.61426940053528
H          -0.99316513627101    0.37082729085918    2.30118457868880
