    23
        -45.37591287  Gyration_radius:  2.37959253111 Dipole_moment: 4.171
 S          -1.08523913624911    1.02707984775047   -0.11034017661315
O          -1.15798199353077    0.45953672690724    1.23209768812753
O          -2.56145146700047    1.11514296444356   -0.61916596260913
O          -0.47976523225101    2.33770596990663   -0.13235957961180
O          -0.37510527271306    0.10250211384423   -1.01494925069125
O           1.98310559434121    1.51785278728419   -0.32589825995592
H           1.82019909351795    0.90129328473550   -1.04662742395473
H           1.14657438595231    2.04194009740544   -0.27993870134426
O          -0.83755881206306   -2.14774402665146    0.29235080356141
H          -1.39522628958757   -1.75008042464106    0.96910019127212
H          -0.64336901125279   -1.39893687982614   -0.31098265393638
O           1.54730356047539   -2.44654214391815    1.36999665737160
H           0.62762314657950   -2.47744680831391    0.99332548217719
H           2.12363121918027   -2.79725701806241    0.68929057490233
O          -1.74933158200447    0.85709192822579   -3.13281684720023
H          -1.04617211991765    0.52226414969214   -2.54116465184196
H          -2.10985061558378    0.09396524830454   -3.59009001036103
H          -2.49854805785169    1.22435048002460   -1.58989949414357
N           1.35968386573311    0.16400757257351    1.85531964503416
H           1.78246601107447    0.71009547226720    1.04770613752988
H           0.30841812006747    0.29294816789484    1.74624125926051
H           1.56348731916456   -0.86528789397850    1.74653052847202
H           1.67710729391398    0.51551837414059    2.75227404455471
