    23
        -45.36849392  Gyration_radius:  2.32122093427 Dipole_moment: 7.430
 S           0.68658333140408    0.38654431713664    0.44089921351458
O           0.65028510003327    0.07467208868502    1.95295580271781
O          -0.70073639847424    0.51762705916654   -0.02390390257667
O           1.41948950962215    1.62641294955471    0.24187020706777
O           1.33815674853162   -0.73512955611075   -0.24621645532193
O          -2.23461571175011    0.54930037276398    2.28669477784610
H          -1.77290090012877    0.74361127950452    1.45639216598613
H          -1.55831070317757    0.58408099006275    2.96679438371564
O          -0.60048565073845    1.19810332602345   -2.57209932350616
H          -1.10026203662377    2.01146259876870   -2.66449784782021
H          -0.74484280295999    0.89974014561347   -1.64263500914503
O          -2.03485300601870   -1.76781913840618    0.67929880215754
H          -1.63089161242862   -1.03508004925336    0.18387482730463
H          -2.52312795282791   -1.32505437758103    1.38779382759671
O           0.33617358414050   -2.41868608847384    1.65722592422588
H          -0.60699591763974   -2.40020453897122    1.35665232794995
H           0.86210360305823   -2.34096556901535    0.84906669194409
H           0.54194450611061   -0.94004773177209    2.01083521660266
N           1.97570555607875    0.88460007472543   -2.12164773490612
H           1.97569817105983    1.49841141269593   -1.25098386229767
H           1.88834398850069   -0.04776991301087   -1.62863708830712
H           1.05037435504599    1.05975169007343   -2.59128633745957
H           2.78316422925289    0.97643864777134   -2.72844660728436
