    23
        -45.37314692  Gyration_radius:  2.43685114092 Dipole_moment: 4.279
 S          -0.67823224880322   -0.45614715523225    0.91254834132473
O          -0.91154847517720   -1.67465295758320    1.87800460567538
O          -1.46881548265001    0.65686596744378    1.38644351254830
O           0.76180089448851   -0.18172988754422    0.93337851711742
O          -1.08030354487288   -0.94469954565053   -0.40705780798693
O           1.17443042278024    1.85192502827278   -0.84513951940660
H           1.16143185160320    1.27300333200220   -0.06397724895291
H           0.23062547655227    1.97542291797656   -1.07578811053404
O          -1.48962413376921    1.59724965683514   -1.24088490989687
H          -1.83022661632297    1.90371166794897   -0.39385373048968
H          -1.48617373560624    0.63003190255685   -1.14806524691626
O           1.95176294690287    0.33852615190397   -2.81414759349960
H           1.78613844746143    1.02066611043144   -2.09911212900200
H           1.33636247471635    0.55124040791241   -3.51849644477777
O          -1.29750654357415   -0.03837205852103    3.92113570287786
H          -2.16729851054036   -0.03457890285447    4.32744568011690
H          -0.96750802233977   -1.29215271768503    2.77908349681877
H          -1.36949502638202    0.50293513394480    3.10929311217512
N           1.29793205806369   -1.57783336311376   -1.15282986485460
H           0.24614682297175   -1.59691424343706   -1.13718069341503
H           1.72298282728517   -2.49679242219261   -1.20049626601131
H           1.62844418502334   -0.91597238549408   -1.92464400861262
H           1.44867394218513   -1.09173264791338   -0.22565940429396
