    23
        -45.38101013  Gyration_radius:  2.35725032392 Dipole_moment: 2.419
 S          -0.44810483845683    1.25724360323080    0.13031845613766
O          -1.13644053380299    2.59184779154667    0.55107506959856
O           0.12731113764848    0.68570163838302    1.33931213185011
O          -1.48081680360676    0.38330790599225   -0.42994147663421
O           0.57906360571985    1.55883252182602   -0.85729637481207
O           2.44387175283441   -0.68321769103206    1.53410556727513
H           2.03055804957107   -1.46252791343131    1.92151299628661
H           1.76735414693310    0.01640623480342    1.61894040033208
O          -0.22647458721367   -1.89337649216038    1.83189646579857
H          -1.02353010915896   -2.05470351770594    2.33840363334467
H          -0.18079044604463   -0.91847147846255    1.70228270753701
O          -0.35464653502471   -1.98829269260172   -0.88154274893560
H          -0.31977672708938   -2.26027401142895    0.05523055291610
H          -0.90344698416737   -1.17577309793791   -0.86271553616671
O          -2.62966178184687    2.41624970137028   -1.62373780901283
H          -3.58170884771096    2.39319999912501   -1.50286191441505
H          -1.66183879907324    2.83098027035281   -0.23865358579999
H          -2.29979153723844    1.52011428371249   -1.40779574916546
N           1.89274689010996   -0.65798062946135   -1.06875201839104
H           2.56456229253766   -0.79122891970714   -1.81591298968367
H           2.32361958572622   -0.75324859491960   -0.11274772483184
H           1.45310158379289    0.31562997673294   -1.09407989210389
H           1.06483949556084   -1.33041890822275   -1.12704017112243
