    23
        -45.37314673  Gyration_radius:  2.43660837058 Dipole_moment: 4.271
 S           0.23277115656967    0.98710886079864   -0.68832583432278
O           1.27297874796858    1.71049253654621   -1.61902444497385
O          -0.22506267594341   -0.16458316379767   -1.46660307048629
O           0.97699431722678    0.53695080121740    0.49185269807136
O          -0.81774913938304    1.92544250830534   -0.36557144413750
O          -2.49734522292632   -0.27502289399090   -0.00121501018425
H          -1.81748999540530   -0.37990008641224   -0.68751606064938
H          -2.58502748778644    0.67996778272847    0.08544455934350
O          -0.09992829851391   -3.20272669904843    1.25302660056230
H          -0.91227916273322   -3.57963121045295    0.90933486600042
H          -0.37205095564519   -2.35613418356618    1.71477870650088
O          -0.81277413545666   -0.82771930643210    2.04221905798204
H          -0.12767227065909   -0.22671452621596    1.70317020653377
H          -1.58640667100956   -0.67142293621367    1.46230465930568
O           0.76029185096126    4.03231084230414   -0.45798488758422
H           1.34382567715258    2.62607350946886   -1.27556664043876
H           0.36614245680493    4.72124236657043   -0.99801509873830
H           0.03347834979628    3.42636844493553   -0.20934768568747
N           1.40985598664303   -1.83376513545886   -0.39205677347630
H           2.26843071846750   -2.21404687404243   -0.77370439619956
H           0.75920334759334   -1.44138065198479   -1.11967292382912
H           0.87596583954951   -2.52486329686122    0.22466037949231
H           1.55384755673669   -0.94804666840670    0.16781253690853
