    23
        -45.38101020  Gyration_radius:  2.35729543788 Dipole_moment: 2.417
 S           1.12889524095461    0.16624012628878   -0.70461265369162
O           2.47361225796610    0.64165578134491   -1.33545798364774
O           1.41793017379707   -0.30739662968960    0.65050697752287
O           0.24666504587807    1.32404575570790   -0.68184502657842
O           0.58396959081068   -0.90239311324164   -1.53079898597347
O          -0.91550714928125   -0.84758627009656    1.81620879176750
H           0.01898859664981   -0.78402426009381    1.52571092289906
H          -1.17314682723344    0.08309820463966    1.95771424193770
O          -2.42308130138588    1.32912337428112   -1.07480798173093
H          -1.46472189094422    1.46923711880539   -1.20182479014301
H          -2.61503951026827    1.74865989287187   -0.22898283075444
O          -1.13016610519878    1.84624408390584    1.52046323917614
H          -0.64673142157565    2.41866719768026    2.11746614613540
H          -0.54477068860302    1.71246815046919    0.74024843165204
O           3.65858166677317   -1.40691819664756   -0.15602737189070
H           3.08104842534596   -0.10325013646787   -1.15384161852664
H           4.37608558569198   -1.21086731486935    0.45085883205998
H           2.82733762809791   -1.21772355220603    0.32520928406641
N          -1.81309308262784   -1.21950711083826   -0.61527710917716
H          -1.58871627190258   -1.20921097210361    0.42900098849200
H          -2.26811420789619   -0.30199094364473   -0.86009165279077
H          -0.85940955643770   -1.20929936846317   -1.09715921866095
H          -2.37061619858769   -2.01927180763811   -0.89266060215896
