    23
        -45.37694100  Gyration_radius:  2.42240335717 Dipole_moment: 4.265
 S          -0.36978548297385    0.56446424629808    0.51736025946576
O           0.69985307043876    0.48868380077449   -0.49932328913877
O          -0.01672200538355   -0.55424610731930    1.56648744875927
O          -0.40183570105519    1.83754134879065    1.18223780001206
O          -1.64617556275605    0.15333203714654   -0.05263252911897
O          -1.31737022698425   -2.46937582621823   -0.03419808512774
H          -1.66629860132166   -1.55506139095233    0.04856758440864
H          -0.81681222847508   -2.60468012530426    0.77520026029199
O          -2.08583799308245    0.20283141966332   -2.67304805438696
H          -2.01327402152492    1.11045865899286   -2.97253702154176
H          -2.11141413431320    0.24364636306914   -1.69164518633034
O           1.71631574608525    2.63539718158528    2.54857343010470
H           1.40715879902449    2.81309541582908    3.43836168067889
H           0.90917216367538    2.48332445383977    2.00914511219093
O           2.42091908773039    0.24082158151746    1.59358291174061
H           0.94491429900748   -0.36145660376088    1.75823302251478
H           2.24262175538753    0.44761799807269    0.66465808698108
H           2.38454190023242    1.10672848990938    2.05547325257506
N          -0.03341188203047   -1.38616235294920   -2.08004151884852
H           0.63564347791249   -1.83461176603791   -2.69547546330533
H           0.40194484229954   -0.60580197672548   -1.46894918155172
H          -0.80593757313652   -0.90596625362427   -2.59665531129969
H          -0.47820973870872   -2.05058059254957   -1.39337520904850
