    23
        -45.38101020  Gyration_radius:  2.35728296384 Dipole_moment: 2.418
 S          -1.11360920947340   -0.17624525149466   -0.72606792371864
O          -1.69255042552207    0.76433338732397    0.22347576920950
O          -2.19711316228628   -0.53537682399012   -1.78873405844038
O           0.00073189734006    0.41705551720178   -1.45102154320698
O          -0.71382686303176   -1.41910802267751   -0.06305248269973
O           1.58841154370269    2.42890625406601   -0.60650767247880
H           0.92129943259941    1.91756431687745   -1.10429256411187
H           2.40068798646335    1.92030004191997   -0.70528189704618
O           1.33157235254424   -0.83945166722570    1.54209916463026
H           1.99263756595534   -0.74609211599317    0.83013407002882
H           0.55088245718251   -1.21296504923035    1.08091095756120
O           2.46633786724794   -0.36886439338681   -0.88331689412365
H           1.54852492334687   -0.15108991072137   -1.16509673616011
H           2.73752772621999   -1.11344791941736   -1.42170219744221
O          -3.19131387172679   -2.28013880491320   -0.06907455259105
H          -2.25900818421208   -2.10906248697549    0.17577483867832
H          -2.82507674531676   -1.09354968142166   -1.28754736621986
H          -3.23627762597608   -3.19716371511110   -0.34954724075500
N           0.34386092459661    1.58516285157352    1.58846277941124
H          -0.58604030816174    1.34395503552780    1.12035308316933
H           0.21377351202466    2.12330520392553    2.43748344608654
H           0.81312272814949    0.64115704189534    1.76037425432940
H           0.90544549833188    2.10081618224827    0.86217477589178
