    23
        -45.36849394  Gyration_radius:  2.32120576071 Dipole_moment: 7.435
 S          -0.34003449935707    0.64685321185463    0.53026710167606
O          -0.15137560883681    0.97829037651791    1.93334548250781
O           0.59233586760242    1.39184232818194   -0.32438380852288
O          -0.17743606065640   -0.79574880642490    0.30619470116412
O          -1.78057499210900    1.02816641697565    0.12460661346605
O          -0.85058424944785   -1.31963080358239   -2.29521665853932
H          -1.68960294761668   -1.73409711387445   -2.04894841164674
H          -0.37789814651207   -1.23417301074470   -1.44974689779785
O          -2.73309218748407   -1.73371440002273   -0.22564430220507
H          -1.85707739784538   -1.53356717062422    0.13880561448121
H          -3.26304984770938   -0.95207724589961   -0.05449296105050
O           2.23989826404003   -1.43956421189659    1.14804929644788
H           1.34320265371635   -1.29370394059589    0.76284834654532
H           2.13265137310586   -2.13488332440017    1.79995670100765
O          -1.25300903669424    1.29537840402147   -2.33577933174353
H          -1.14957705191484    0.33564167831385   -2.55604240351730
H          -1.73523549660106    1.19505504929235   -0.88277537138318
H          -0.37234278995402    1.59080309566818   -2.06582750900510
N           2.34733975117097    1.16511463082032    1.52378624448385
H           1.96300891422374    1.42918286192691    0.57376285144007
H           3.08596675472441    1.76681769093803    1.87160024842283
H           1.42629206478513    1.20304228419675    2.05758535609280
H           2.60019468937361    0.14497197932183    1.46804909765847
