    23
        -45.37182623  Gyration_radius:  2.39799919107 Dipole_moment: 5.939
 S          -0.51859489848784    0.49094728176194   -0.57979739021472
O          -0.75991524101208    0.38803731033210   -1.99928350685341
O           0.96647341101581    0.02374099291090   -0.37610310334197
O          -0.67725750685845    1.80788611789895   -0.01859017135901
O          -1.32076887018658   -0.51923853358663    0.16550909889907
O          -1.05809400713176    0.64479554185389    2.55948713345848
H          -1.29880522442678    0.16009586966498    1.74776167476475
H          -1.25941382834083    1.56416426847151    2.36258412442861
O           1.29191391701644    3.17207445337977    1.14130643675306
H           1.80691603105938    3.58753198429462    0.44850867619006
H           0.50446409617458    2.78949666907009    0.70028052617202
O          -0.59597192396473   -1.90928126645679   -3.16426434249608
H          -1.45021484280847   -2.04010703653040   -3.58018728996609
H          -0.60169980424379   -0.96670826818022   -2.84011479830432
O           1.54941691203314    0.63883847511970    2.00151836941126
H           1.68518040452018    1.60111870079687    1.88377237698739
H           0.65861867012427    0.56583469577943    2.41759080497645
H           1.25359304605855    0.26153841290906    0.58493307298979
N          -0.02421935044680   -2.50245404853657   -0.68163824033918
H          -0.68562655185508   -1.72695708213804   -0.23845956269560
H          -0.24923489406554   -2.48182925933311   -1.72105888428642
H           0.91769040627994   -2.12968560609099   -0.55164830830892
H          -0.13444994054696   -3.41983968335418   -0.26210670685422
