    23
        -45.36886615  Gyration_radius:  2.38672989237 Dipole_moment: 7.672
 S          -0.47536013123014    0.96462806606443    0.18758234731638
O          -1.82540113871018    1.07174267996790   -0.28720603540351
O           0.07227374499966    2.21587871895066    0.73069639414522
O          -0.42572703974522   -0.00251665817007    1.42889067595239
O           0.43625939644199    0.39386745888188   -0.80689024830658
O          -0.63483776595235   -0.59442505500262   -3.06365117959502
H          -0.91475128023701    0.19310540195182   -3.53359097045619
H          -0.17307480287855   -0.27612434662484   -2.26247910919870
O           2.86160043437854   -0.04948706167753   -0.02054242446423
H           3.42875629259704    0.28980162285790   -0.71510905439716
H           1.93598219644421    0.00346479875513   -0.38103083112094
O          -2.66962691931989   -1.22325170665305   -1.37718206755904
H          -2.04006298976313   -1.24317305001346   -2.12359250207869
H          -2.58102474366460   -0.31850584333770   -1.01901712525039
O          -1.49811890878495   -2.21338232526176    0.70798177291158
H          -0.82172582513573   -0.88658246372656    1.14656363276185
H          -2.20742100998238   -2.44920018698876    1.30935416543126
H          -1.94892279906938   -1.95226532670916   -0.15142741401396
N           1.93174018747309    1.22220021728903    2.08334440553315
H           1.43311603544611    0.52362078626256    2.63109026739493
H           1.12553085467100    1.77206296661122    1.51404244928682
H           2.49650904761240    1.82921964375998    2.66784475961702
H           2.49428716442953    0.72932165279982    1.33432810148242
