    23
        -45.37997269  Gyration_radius:  2.33317532353 Dipole_moment: 3.120
 S          -0.92405201534144    0.20717154020046   -0.03423134180661
O          -1.75753261423084    1.32459505614149    0.34011026345904
O           0.15792924445051    0.60759540308432   -0.94826927808369
O          -0.40085663174278   -0.55504445872026    1.08544915877369
O          -1.80257594643709   -0.82582724355817   -0.84556466999262
O           0.87404850934712    2.35130655507462    0.97620795207532
H           0.00484443937653    2.53566657461440    1.34225558335477
H           0.68784549693302    1.90884895951229    0.13206607841033
O           2.04764137895808    0.13917637039636    2.01833088235061
H           1.86877918742101    1.07858914688193    1.81275537241644
H           1.15669812031174   -0.24669610120569    2.07329300798330
O           0.35931784613260   -2.77035208813101   -0.12760780397363
H          -0.29374057886155   -2.88813331318008   -0.82094271342480
H          -0.02288896638586   -2.08199278306839    0.45893209870232
O          -3.32568604034706    1.13007205036526   -1.74906282463902
H          -4.24741001143604    1.13867836697593   -1.48080297519407
H          -2.81598302624668    1.49171681210579   -0.99397027059450
H          -2.41095959597196   -0.27551588028148   -1.38318720552161
N           2.21290344555307   -0.86752061675585   -0.39145311977141
H           2.36255058756645   -0.51739795735845    0.61049717570528
H           3.05965680916116   -0.86236933005941   -0.94850834789107
H           1.75104515171568   -1.80412012248745   -0.35224319330923
H           1.45842518010103   -0.21844694057834   -0.77405381902284
