    23
        -45.37997260  Gyration_radius:  2.33303916642 Dipole_moment: 3.123
 S          -0.32064485087430   -0.78608287138725   -0.42153843297227
O          -1.26231535284002    0.13530072100392    0.18880700146563
O          -0.66051052007436   -1.18536056145755   -1.76636016521084
O           1.05430148641580   -0.26879107424005   -0.33046139916353
O          -0.35379099668112   -2.06508530550242    0.50592109746310
O          -0.73315843213125    2.78374390265783   -0.04749448040683
H          -0.34949169639814    2.63542838877683   -0.93498202746207
H          -1.29848137614877    2.00286237441107    0.08005522614888
O           0.30109877629473    1.51056087654881   -2.20763331228752
H          -0.33796710136888    0.96929231510497   -2.67895622124782
H           0.78883020770151    0.87718212637904   -1.65636424622948
O          -0.59294961030316   -0.07603628221900    2.73082179139968
H          -1.04191659452486   -0.03045754634672    1.85883733273886
H          -0.34014327496094   -0.99707498740588    2.82535126167261
O           0.33184715699621   -3.59783294558761   -1.52873296849636
H          -0.00301276183455   -2.79233837987020   -0.05108506757988
H          -0.30301562922748   -4.25391728345680   -1.82548490904332
H           0.03809630823720   -2.74134267605051   -1.90414236801175
N           1.04920843834526    1.60195398087005    1.46089580984575
H           1.89687152725354    2.04996512346700    1.78963296585116
H           0.38469398757413    2.27269157759732    0.95365223357714
H           1.23394096571255    0.83844079634671    0.73991464333853
H           0.51850932283584    1.11689774037385    2.21934622461799
