    23
        -45.37078119  Gyration_radius:  2.32174637135 Dipole_moment: 7.203
 S           0.03778355376533    0.77932110981616   -0.47583433154027
O          -1.01747950068203    0.97592535109956    0.55457877482768
O          -0.63045777877876    0.79275425381575   -1.85314192439704
O           1.00518850803181    1.84206868695210   -0.40079248856877
O           0.65582834097796   -0.54101662878631   -0.27269060817768
O          -1.89704578378543   -1.54743388035724    0.62038016130757
H          -1.03596081866114   -1.97574537336612    0.63562116212149
H          -1.70729528306889   -0.59409796220300    0.70615615429477
O           0.39892016839417   -2.39096517131207   -2.18524960522252
H           0.94996860171383   -2.10853204994174   -2.91658995596137
H           0.58325126301487   -1.77055771418725   -1.45017687993390
O           2.29555586218816    0.26883643979311    1.59409422791135
H           1.71339249635090   -0.17365760313245    0.92726571952630
H           2.96078604318149    0.71508402073061    1.06288609586274
O          -2.05590778162413   -1.28718355995278   -2.03962234231794
H          -1.32383068343066   -1.89501462756317   -2.26963528231390
H          -2.25136572115178   -1.47460773741411   -1.09431990686644
H          -1.27607823310373   -0.00963736062644   -1.96119728497197
N           0.51884807449766    2.10656254405016    2.21244246066031
H           0.23496786504475    2.28661743385765    3.17033166067426
H           0.81151176627164    2.95078236131091    1.72458282081692
H           1.30556610350541    1.38549199424342    2.12278243796083
H          -0.27614708272420    1.66500548318610    1.58812896435497
