    23
        -45.37997259  Gyration_radius:  2.33294345912 Dipole_moment: 3.127
 S           0.86982491698687   -0.27480906355362   -0.25834887466177
O           0.15259982362691   -1.02774323214795    0.75505351300265
O           0.09437917556156    0.90062485527602   -0.68667786097867
O           2.22417706028226    0.07191528964686    0.10074359031430
O           0.91232013901851   -1.23363279613128   -1.51384024927020
O          -1.85800383016876   -1.98320238241545   -0.65933914630420
H          -1.47354790371858   -2.14817045566258   -1.52304949582254
H          -1.08760133636754   -1.83231793743282   -0.06967324437665
O           0.71894574474851    1.94480369504985    1.71683966550416
H           1.57934835904161    1.53454684526570    1.83900505150606
H           0.52039972534786    1.80591812097079    0.77649196602481
O          -1.35341366028911    0.38570004543654    2.51135182809131
H          -0.70626866095964    1.11878885331182    2.48795931167216
H          -0.83223564359103   -0.37670907845934    2.20685879163991
O           3.13991963503590   -0.09186730667454   -2.34814285113494
H           1.65087518013751   -0.89807154062102   -2.06507288983252
H           3.01842571523785    0.17105126050315   -1.41173921755024
H           3.93490886819398   -0.62930507919100   -2.37626068323048
N          -2.34711683601338    0.53046314302218    0.09467596774029
H          -1.41250540023926    0.81574797766641   -0.33200437134959
H          -2.48697082427029   -0.45417946704189   -0.22619483484548
H          -2.15138485546258    0.52249917375833    1.14842253542147
H          -3.10707537214469    1.14794908939418   -0.16705849154495
