    23
        -45.37997260  Gyration_radius:  2.33289461906 Dipole_moment: 3.125
 S           0.63523647453274   -0.67651180777827    0.19569684962961
O           0.94212168747459   -1.52326671410078    1.32363239608945
O          -0.76968052563805   -0.80447503221828   -0.22414820625293
O           0.99773591091934    0.71817704301617    0.37403415355765
O           1.49209585234934   -1.15738617469932   -1.04188182964666
O           0.91931266866204    1.58009358435085   -2.11734860750240
H           1.22742427849153    0.82983874143677   -2.63038560433440
H           1.14195752498083    1.35364357747155   -1.18832854560667
O          -0.91720060328290    2.37974667575931    1.33406082169413
H          -0.00628502459688    2.08733000391447    1.15972165708479
H          -1.27941110864576    1.65698472618527    1.88478359768119
O          -1.38554932703788   -0.10903788236222    2.30453766942423
H          -0.62938010102956   -0.49585914106409    2.75414755638029
H          -1.36452530003779   -0.50656845962287    1.41880383259112
O           1.46395643139279   -3.63536437257736   -0.13555048805610
H           1.18860500995798   -3.05740696227858    0.60663413926166
H           1.51712207751097   -2.13512908835170   -0.96909800161076
H           2.30149239168066   -4.02640075765533    0.12371750477515
N          -1.53200898758655    1.52501829176566   -1.06165286102130
H          -1.42024292554915    2.04564187106337   -0.13143005722720
H          -0.72218559327192    1.76387048578161   -1.67736222864244
H          -1.37019892909465    0.50436102007672   -0.79892421868785
H          -2.43039187217257    1.68270036186736   -1.50365952958865
