    23
        -45.37283354  Gyration_radius:  2.32812521137 Dipole_moment: 5.564
 S          -0.52105161736273    0.57097898917264   -0.84878685251048
O          -0.73957996848430   -0.48428607362334    0.29768725050223
O           0.86578577334506    0.31094788826905   -1.31900558639833
O          -1.49239608760779    0.21908295918045   -1.85564421489266
O          -0.64313891769883    1.89354349462092   -0.29155795173363
O           2.12259167876341    1.75979473169986    0.53520361720785
H           1.78553044631469    1.28394437086436   -0.24753572197977
H           1.61790083160078    2.57758894656169    0.56144258247310
O          -1.01215445531159    2.34082167508823    2.30395151417229
H          -0.90951160692060    2.28404804725598    1.33023303624563
H          -1.95234096628272    2.42460352425493    2.46656050514799
O          -1.68596061534434   -2.33262933655852   -1.61745672269958
H          -1.71893099135925   -1.35876160428856   -1.83394718363676
H          -2.14257839674369   -2.40362132969821   -0.77527479339706
O           0.70885419585992    0.27191589936570    2.23265109929779
H           0.12155165795728    0.96941329695785    2.58264444030248
H          -0.17062559251100   -0.21689742266862    1.10714427340154
H           1.40694085218541    0.77005398858716    1.74553028657729
N           0.89672906556588   -2.21180553683693   -1.27490520071866
H           0.97117260703021   -1.10523864116128   -1.34093656456838
H           1.45471854593712   -2.65861674773065   -1.99559717760370
H           1.19314658408158   -2.50503001164466   -0.34859357922898
H          -0.15665300301989   -2.39985111766156   -1.41380705594480
