    23
        -45.37350739  Gyration_radius:  2.31073834591 Dipole_moment: 7.159
 S           0.68983045002634   -0.22471051150045    0.84697595496494
O           1.56778522498341   -0.32336542784346   -0.31946149622680
O           0.80456006595553   -1.40859275748850    1.70251828133913
O           0.82462657965242    1.02733133363880    1.54539364568997
O          -0.77720797992668   -0.34383591023199    0.29295843762525
O          -1.07945277279673    2.88653026042782    1.48337189805209
H          -0.33163089465783    2.26047199277634    1.58501491758172
H          -1.59795200635372    2.81157029643194    2.28520810215085
O           1.41898462684848    2.22202570834467   -1.06151289878428
H           1.64048082133297    1.28983026047011   -0.86826896708796
H           1.56520670661707    2.68851931004488   -0.23413137710403
O           0.29572278997990   -1.83496531915894   -1.97983554877912
H           0.91354392452305   -1.25631197743305   -1.45883960494712
H          -0.36657817102075   -1.23775653261273   -2.33691520147315
O          -1.20365993581363    1.80145127309542   -0.98091209086120
H          -0.27858065007603    2.05108771739471   -1.21841801800618
H          -0.99909177168039    0.50442703561823   -0.24044774847939
H          -1.41255362819615    2.37273395359265   -0.21739641007680
N          -0.35114482092273   -3.09688756501548    0.23068416428563
H          -0.15798654313090   -2.68124571658110   -0.73647780038404
H          -0.00130455656863   -4.04684162957513    0.30656196047759
H           0.18107387274275   -2.40941880829784    0.93798771380579
H          -1.34467133151920   -3.05204695610526    0.43594206623839
