    23
        -45.37618765  Gyration_radius:  2.32671356612 Dipole_moment: 4.942
 S          -0.73830313478294    0.67233501037089   -0.42191303510043
O          -1.60123397215552   -0.26155472203854   -1.13647828597631
O          -1.29534442106068    0.68345154725783    1.04623908665080
O           0.62905016568714    0.12589589333369   -0.31805479659487
O          -0.75360784707149    2.01422272409401   -0.93891940603954
O           0.22266735495568   -1.62334603865387    1.62249172335033
H           0.56575860521166   -0.94496581013602    0.99958353594406
H          -0.42187462724661   -1.15292820046272    2.15908930774793
O           1.60027095398987    2.70201477964507    0.01560885350092
H           0.77958652027638    2.63748302861308   -0.51637211931253
H           1.96486051390980    1.81147993555106   -0.02023753041429
O           1.28097011566060   -1.77038090254960   -2.05442017481844
H           1.14720666692511   -1.40791620165640   -2.93166165446547
H           1.18289563889737   -1.01413339219788   -1.43229288437963
O          -0.03272105136364    2.68581737997423    2.08232481432315
H           0.70797935957890    2.76848434813110    1.42636591565267
H          -0.56985703419637    3.47271662172195    1.96624845386844
H          -0.84549784166737    1.44968610938474    1.50470110289424
N          -0.78283075427238   -2.61935767992394   -0.60951611421713
H          -1.27181957598234   -1.67940529027670   -0.84788466808583
H          -1.38418317995614   -3.42707091849431   -0.72286213143620
H           0.04591816317911   -2.62913817251901   -1.24658297626182
H          -0.42989059851879   -2.49339004916486    0.37454298316204
