    23
        -45.37229519  Gyration_radius:  2.45952440325 Dipole_moment: 5.534
 S           0.41352151190916    0.69785669824499    0.87466049487533
O           0.08637901690399   -0.72963334232584    0.97460230808361
O           1.72799878667474    0.90362498543861    1.71801471126925
O           0.80138642519058    1.03447354757159   -0.49132237525007
O          -0.61452423327859    1.55113407435572    1.42860875359355
O          -0.25159151216820   -1.83467715828347   -3.00946496921385
H          -0.07486943126547   -1.68315120111348   -3.93915012540685
H          -0.78699627963788   -1.04565239153716   -2.70204372157058
O          -2.48381422322988   -0.11480815088809    0.30636529598294
H          -2.27473871403223    0.72751021149046    0.73088674725021
H          -1.77882468654024   -0.70130048750619    0.61643590051661
O          -1.32395035290144    0.34720095492103   -2.08148000710745
H          -1.96245407925084    0.15499446831314   -1.36331036210774
H          -0.57927234727815    0.78168735939925   -1.63188524039169
O           0.34535098601123    1.55028491939821    3.88142395197944
H           1.43889848162455    1.04769494256858    2.64390611117909
H           0.44985778784540    2.44681482991298    4.20827319673324
H          -0.27261994921074    1.60292202302201    3.12483939143668
N           1.46712792968454   -1.38404169459847   -1.07790567472127
H           2.36915478786849   -1.84385942812505   -1.02927208593659
H           0.86770132309593   -1.70784620577796   -1.89613827059184
H           0.90864177033138   -1.46541330535462   -0.17712096992358
H           1.52763699165086   -0.33581565912166   -1.10892306068126
