    23
        -45.37229517  Gyration_radius:  2.45968187838 Dipole_moment: 5.533
 S           0.63705378774830    0.81908544559523   -0.58771958362556
O           1.09259080524495    0.00405717958704    0.54498738031269
O          -0.40153667624042    0.11527972440580   -1.33312850558804
O           0.28368488736139    2.16816791536945   -0.20448243984092
O           1.85318972379494    0.89606705734179   -1.58601109698248
O          -1.85217919117457   -2.90918129802526    0.77085144815042
H          -2.57102867791705   -3.40641366005907    0.37779011593600
H          -2.14863041728933   -1.95211375743183    0.76631213799608
O          -2.41788782764796   -0.38909361473153    0.45499009677060
H          -2.06960629152181    0.15148031297460    1.19449611927702
H          -1.86917042228549   -0.13679144579826   -0.30709348595056
O          -0.87474069403446    1.13153591846728    2.05717981820463
H          -0.74941379939683    1.88290862669271    1.46304145608708
H          -0.07831784886127    0.59995314854458    1.91457080211166
O           2.69913034618949    3.16842685663013   -0.52217919069937
H           1.78369273501242    3.03138702892886   -0.20544193705610
H           2.40608606407736    1.64836087255777   -1.28614457354624
H           2.67685545721304    3.94469079021462   -1.08650867234579
N           0.33588072226480   -2.20718871482215   -0.49696422084239
H           0.96794815922521   -2.88170184736206   -0.91288445558291
H          -0.04870856803020   -1.50951781123821   -1.18154009246607
H          -0.48152650753715   -2.65223283818213    0.02023023613123
H           0.82663423380613   -1.51716586965372    0.14564862354352
