    23
        -45.37229517  Gyration_radius:  2.45996615584 Dipole_moment: 5.533
 S           0.63571962395140    0.92115406680999   -0.41132255498823
O          -0.66072839099853    0.45753692532422   -0.92040179401921
O           1.37054376627617   -0.18790860700342    0.18837204245326
O           1.48515033256216    1.31611910857909   -1.67775018669969
O           0.52328907572217    2.08760738834264    0.43637653571454
O          -1.02016170139420   -3.27295606803703    0.85897456737734
H          -0.63467807864224   -4.03653908673375    1.29113008915428
H          -0.82319288344845   -2.49337196443035    1.45670594933333
O          -1.72726729385558    0.96644764325235    1.53575769646888
H          -1.76880739216842    0.74350967972870    0.59463858312558
H          -1.03600828535348    1.64023935937319    1.57384672489609
O          -0.22894034165057   -1.17743284106201    2.18340810929296
H          -0.90470060343541   -0.46788369231453    2.16721268575952
H           0.49523647045017   -0.83281969539065    1.63358229065417
O           0.72382382789319    3.84671880803398   -1.51311089088344
H           1.25301723866371    2.24623695206438   -1.88408314072491
H           0.49559142234763    3.42666264958628   -0.65951409591573
H           1.40793727729782    4.49261931097124   -1.32244000288828
N           0.08377603801857   -1.98054892574703   -1.14104502165758
H           0.91371875058699   -1.54972679727054   -0.66261946935133
H          -0.40133124844960   -2.62770682870796   -0.44873324456962
H          -0.48896091930774   -1.09228195040390   -1.25504046241081
H           0.30697333492454   -2.42567543495984   -2.02394443011614
