    23
        -45.38117600  Gyration_radius:  2.29803544622 Dipole_moment: 2.264
 S           1.42639305950417    0.43430169161279   -0.11661852701992
O           1.81091446936877    0.33487620179594    1.27689261133237
O           0.80904265708465   -0.80350717128652   -0.59021774624956
O           0.53621557752620    1.56999880918790   -0.36757822717805
O           2.72759375908341    0.66373755614235   -0.94866419710247
O          -1.77620631271456   -0.75030631042357   -1.12055813200502
H          -0.79690425640732   -0.75427947591160   -1.01239671332914
H          -1.93591311095308   -0.46387149947782   -2.02091358322444
O          -1.76887607487851    1.08813019821555    0.87144824258179
H          -0.97145929228847    1.48873759773749    0.46590886620571
H          -2.07264385123692    0.45527134983897    0.19140559445855
O          -0.52836548979792   -2.62266175611436    0.84645907177462
H          -1.33553312078868   -2.57400085507947    0.32339943733133
H           0.14448379213586   -2.17209162225330    0.29637137294188
O           1.14523346696853    1.55690932471678   -2.90077365680416
H           1.34504019895217    2.43680824645107   -3.22788079330824
H           2.38839610232687    0.86221746185814   -1.84227249718533
H           0.70862579060238    1.67698011555692   -2.03017614555811
N          -0.38147494065773   -0.49289915563158    2.42215490625701
H          -0.51293717750240   -1.44687264821939    1.99032870446626
H          -1.06716497526194    0.17875885994671    1.94629288429053
H          -0.47409042064172   -0.50365744359043    3.43164636072735
H           0.57963016957121   -0.16257949507815    2.11574213659757
