    23
        -45.38117601  Gyration_radius:  2.29804195596 Dipole_moment: 2.262
 S           0.08214598957950    0.26402882001980   -1.46968505461565
O           1.16155682669906    0.25461718723308   -0.48378697774782
O           0.55844811374949    1.11911937109735   -2.68631282437234
O          -0.20087841297055   -1.07066659257667   -1.95779105342084
O          -1.10545974818679    0.91440854622642   -0.91132945759129
O           0.52566049341138    0.77282668860901    2.02477717077620
H           0.53765829356823    1.71593250483470    2.19379710139654
H           0.78468233197413    0.66853491266350    1.07985259632883
O           1.87570054824888   -1.74512624947888    1.14545139969858
H           1.77478765245641   -1.23881151260180    1.95837501804578
H           1.86856043018065   -1.06976581687649    0.43684511109987
O          -1.80033856423922   -0.40925326123642    1.29018231941761
H          -1.09165818411468   -0.00661595839192    1.82955577534849
H          -1.77580428146029    0.11259894560125    0.46076286027549
O          -0.02678184330286    3.26615080764946   -1.21687661495022
H           0.59264642954588    2.02441472165245   -2.32255247181818
H          -0.63360928756597    3.89192802368411   -1.61845505947825
H          -0.56828585601659    2.50063540448528   -0.92755360055215
N          -0.52254653594177   -2.43379542103565    0.24251583137472
H          -0.89342377405329   -3.37715084736751    0.22570330644127
H          -0.42114274137918   -2.03005873706364   -0.73398711195893
H          -1.15796070563808   -1.74371635205286    0.75995050103922
H           0.43604282546166   -2.38023515506233    0.68056124524462
