    23
        -45.38117604  Gyration_radius:  2.29796908487 Dipole_moment: 2.262
 S          -0.32521033081535    1.10743292208558   -0.95099565190106
O           0.78739195721660    0.31136596508118   -1.47399385658062
O          -1.24235489664855    0.25565167876725   -0.19561910711003
O           0.12884943534964    2.23143613645929   -0.15712663401363
O          -1.10902169119574    1.68075336227793   -2.17373088152400
O          -0.38146084231477   -2.13723655755581    0.51060233506746
H          -0.54188548696282   -2.77799737667738   -0.18358421310242
H          -0.74153785229566   -1.28426091347692    0.17362300668007
O          -1.35384280983132   -0.08585238731467    2.45649533030937
H          -1.23908316352786   -1.04160030757082    2.42883471955502
H          -1.56525019666067    0.15956810315657    1.53269704137008
O           2.00085981166139   -0.84731773992699    0.59176669974044
H           1.30925989743419   -1.53054863916672    0.69310544102982
H           1.77075542915353   -0.41871731359159   -0.25919029387215
O          -0.73459876052509   -0.68999743441473   -3.33622391315431
H          -0.02841423010147   -0.52165220462114   -2.67599309336042
H          -1.25941978712431    0.89337519068779   -2.73093041601352
H          -0.31176116649759   -0.66824826161707   -4.19753960538160
N           0.98628409189826    1.08812166564961    2.02481565931623
H           0.10171537329618    0.67047797601819    2.42079131796911
H           0.68272091079377    1.70253669398643    1.21416723032857
H           1.51766167533817    1.60689470225392    2.71495486563347
H           1.54834264234551    0.29581473946646    1.57307400899681
