    23
        -45.37376826  Gyration_radius:  2.45194823575 Dipole_moment: 5.514
 S           0.14733184121016    0.91281717286516    1.18324141454968
O           0.55560876354484    2.23901758538306    0.77845774817845
O          -1.09385974093503    0.50840053986086    0.48317735709496
O           1.18981701858092   -0.07519383542103    0.97980859999324
O          -0.18721522501396    0.91093728407183    2.71160099031535
O           2.09015204496514    1.45655893230448   -1.18462900893145
H           2.58444818851908    0.80181290222182   -0.68112074464065
H           1.60214525979433    1.96002968390334   -0.48935294185330
O           0.67281483361784   -2.58740731370103    0.51460868921235
H           1.45756124045905   -3.03037682415833    0.84234811618097
H           0.79653438914143   -1.63322192746447    0.74350521622343
O           0.18751879367385   -2.45776006097537   -2.06763255732624
H           0.42644317419131   -2.57210923539198   -1.11077221294720
H          -0.60690545852333   -2.97832460852442   -2.19793541727564
O          -2.66176158807947    1.73638228706525    2.20953616995433
H          -3.32294539682981    1.11768151110880    2.52805447217446
H          -1.04158080641930    1.38208359929177    2.78349834397639
H          -2.28377171782475    1.34426112288221    1.39691662400413
N          -0.11238340113733    0.19223625914403   -1.91345346620896
H          -0.61935336371491    0.30509114961552   -0.98434502474635
H           0.02435562984608   -0.83890760782791   -2.08714345228802
H          -0.63192369783142    0.63161402012268   -2.66603893428426
H           0.82696923043785    0.67437736624924   -1.77232998055105
