    23
        -45.37376824  Gyration_radius:  2.45187930304 Dipole_moment: 5.513
 S           0.30702935226908   -1.42693363340048    0.35264465793419
O          -0.00941830865892   -2.44313554167582    1.49941248503082
O          -0.99020136733616   -0.83937822833082   -0.05505286958135
O           1.16984410019996   -0.40807739984654    0.91994224308969
O           0.92521236217868   -2.12213988453750   -0.75363872195683
O           2.29206063805677   -0.07381111869535   -1.62369943553488
H           1.90019673467328   -0.96384971250352   -1.45255093550834
H           2.67560865324291    0.16864806301670   -0.77478494286899
O           0.23920663741508    1.72697374038575    2.09077296758648
H           0.94243184198822    1.95928998826324    2.69989066209163
H           0.52148817415026    0.87311171442773    1.67919268310819
O          -0.24058185060000    3.20806116564631   -0.02979677547838
H          -1.11144668646783    3.58042708195386    0.11866596620988
H          -0.01549958425210    2.71753524046252    0.80352890050973
O          -2.31778682101717   -3.07982682629048    0.34940112823608
H          -0.77355076998256   -2.96036839391510    1.17432820595621
H          -3.06943338589301   -2.90067534800538    0.91894586345917
H          -2.01723424668273   -2.21430132964638    0.00653158881727
N          -0.09571601313725    1.05720301875197   -1.60751503268627
H          -0.54196778222800    1.13329338868217   -2.51550816785476
H          -0.13322845560581    1.96921255625500   -1.07938115472037
H          -0.56875485865908    0.31241914590080   -1.01208990438683
H           0.91174163636285    0.72632230315795   -1.70923944145757
