    23
        -45.36911137  Gyration_radius:  2.48510783324 Dipole_moment: 2.577
 S          -0.20494724441429    1.29338838621070    0.91247362632477
O          -0.68252859503776    1.81171000929919   -0.36457904794166
O           0.25079654915496    2.30120373984597    1.83227082799993
O          -1.46636958145748    0.57246841921820    1.55086592232907
O           0.77444615757747    0.22270836899466    0.69055586624410
O           2.11029099091397   -0.02109958376198   -1.56296008980508
H           1.72106815301049    0.06223973128464   -0.66049659537204
H           2.77823437234237    0.66206395465182   -1.62872510905005
O          -0.82313950591409   -1.72481125688645   -0.02527124257153
H          -1.60208481195863   -1.59532670381804    0.52062963957006
H          -0.15214760476344   -1.10414399144474    0.34573357523006
O           0.87913543467313   -2.53087509442984   -2.22296260784234
H           1.63479374833599   -1.97702037097966   -1.99893769451968
H           0.45045749779638   -2.74536729889840   -1.38868292538786
O          -0.58586682086116    1.09069797023385    3.97313934945500
H          -1.08376050998049    1.69827445388310    4.52478810612044
H          -1.28957247609286    0.59849247815458    2.51579831172096
H          -0.05512292582051    1.64689726242816    3.36121868867148
N          -0.55063666272741   -0.05239157129877   -2.11220797634139
H          -1.08040858551243    0.00111256595717   -2.97505227672414
H           0.47068019160028   -0.11882436249471   -2.28734247754182
H          -0.68866131447860    0.80018864731174   -1.45963467822941
H          -0.80465642638411   -0.89158574346215   -1.54062119233671
