    23
        -45.37997262  Gyration_radius:  2.33336023231 Dipole_moment: 3.117
 S           0.59118456536161   -0.47751701803000    0.56513247748169
O           0.93641972699179   -0.27631079212718   -0.83085808870496
O           1.61492532996655    0.42301510849943    1.36391720934776
O          -0.73868565772374    0.07855581987474    0.86244070992154
O           0.72339373004369   -1.83979158279266    1.02357869418968
O          -1.70828157478878   -2.00877276255704   -0.53710157481393
H          -1.02825388373681   -2.65526364790555   -0.32914942754807
H          -1.56342535688441   -1.29614599061855    0.10652779627395
O           1.22962246845394    2.34351121999706   -0.90367599735016
H           1.31253344889954    1.36770445809267   -0.97389598234847
H           1.60162469417918    2.55727421238210   -0.04520598660655
O          -1.08136387413053   -0.40979694733417   -2.63593846829987
H          -1.52635497292412   -1.09589367875051   -2.09913381369964
H          -0.15751833206925   -0.46234220878721   -2.33688831863795
O           1.44765789790882   -1.18031238486356    3.45280220804191
H           2.23776072484909   -1.66064198681876    3.71087197945567
H           1.62583123256856    0.05279350493852    2.27212345802471
H           1.06768282597402   -1.66519918996439    2.69037584728083
N          -1.34946215888871    1.67794749735816   -1.08146603277830
H          -1.36906328863295    0.94181405143030   -1.86052400362499
H          -1.23710895706875    1.09993201921581   -0.19264000742473
H          -0.45657754600437    2.21614480584740   -1.15320267481158
H          -2.17254104234896    2.26929546291500   -1.06808999338300
