    23
        -45.37997226  Gyration_radius:  2.33362492063 Dipole_moment: 3.113
 S           0.44758883775684    0.68459002793664    0.47496523774156
O           1.66547590883695    1.44228581281796    0.31330037273071
O          -0.16252367082232    1.01092166279897    1.89569811074264
O          -0.60436461043434    1.02921387215857   -0.46474801079575
O           0.69593714323129   -0.76619836124434    0.47614289508118
O          -2.70136148198146   -0.04967690724519    0.71585042449915
H          -2.52106464865444    0.06376680675800    1.65164826548975
H          -2.04656727910824    0.52687881318822    0.26557713824643
O           1.83553858917489   -0.37568052053388   -1.93279476189075
H           2.17850460720349    0.51122923273402   -1.79360413949981
H           1.60751635639187   -0.68476679877604   -1.04089041931014
O          -0.75139324664515   -0.42761278940224   -2.74559680411302
H          -0.89117672408992    0.35451671122942   -2.18481090073406
H           0.22260335992509   -0.51620439969638   -2.76179700389365
O           2.24690032586892    1.47153062095759    2.86673335748732
H           2.32873576325384    1.47407719156207    1.88993467175806
H           2.44664190352751    2.36473406789936    3.15629533130488
H           0.61189175579602    1.11516634359731    2.48862008062461
N          -1.34284378628301   -1.89118538567919   -0.65846609240598
H          -2.11620009830843   -1.39571722517558   -0.15994215354510
H          -0.46204883693264   -1.59774825455197   -0.13422816070249
H          -1.46791812196723   -2.89647416440687   -0.69138771098275
H          -1.21987202574166   -1.44764632694060   -1.62649976783024
