    23
        -45.36911165  Gyration_radius:  2.48397619698 Dipole_moment: 2.561
 S          -0.85177873709976    0.80683813103741    1.08604821779594
O           0.27390190952002    1.92513124817708    1.05101173985203
O          -1.56319335273788    0.92334922457375    2.33088147784402
O          -1.66162985639851    1.06105964840305   -0.10011346109568
O          -0.13100194940729   -0.46411706365631    0.94504097035400
O           1.74352912777745    0.24917134901261   -0.73894399166833
H           1.95736350450867    1.14736052162587   -0.47579415028999
H           1.16230275254597   -0.09042121766119   -0.01785266104739
O           1.41875070290582   -2.12707373980695   -2.36070037910483
H           0.83420756277486   -2.60317051062771   -1.76105607612003
H           1.97938434835466   -1.57744054387145   -1.80448363414560
O          -0.91894050413880   -2.35487737711642   -0.70608695716272
H          -0.61855663290089   -1.73608810991226    0.00089530848377
H          -1.70514040956762   -2.78417844882481   -0.36725379549320
O           0.44216676407255    1.88465975312193    3.67431295783865
H           0.54218954584026    2.01826401234903    1.99032152949165
H           0.17010890481713    2.66074567840233    4.16925271021061
H          -0.38244692416437    1.40341820838937    3.44228793903333
N          -0.54664228490224   -0.05989596154751   -2.11199657868263
H           0.46740703120887    0.07910847115953   -1.89262714568875
H          -1.08972279462436    0.48621538963467   -1.35149878521780
H          -0.77729963391618    0.21685790858894   -3.05976219019585
H          -0.74495906446690   -1.06491654145694   -1.94188301499614
