    23
        -45.36331583  Gyration_radius:  2.36087839745 Dipole_moment: 7.225
 S           0.30030768481800   -0.69795001780210   -0.42914315659460
O           1.07327769852494   -1.91910325904086    0.10803928061537
O           0.85316680024568   -0.28276097648764   -1.68714380949959
O          -1.09825211977272   -0.99806572777899   -0.40847981626595
O           0.61740826085472    0.41266219689308    0.59559766132108
O          -1.36620264177931    1.21279076149243   -2.25779817542656
H          -0.49879788117736    0.78114737750678   -2.23880970909985
H          -2.00738024864177    0.50144298488738   -2.18438204345391
O          -1.50540750988030    2.42063013571097    0.18741024468263
H          -1.54362021373949    2.17099123203977   -0.75620231583496
H          -0.60124084312502    2.24663868492798    0.46319664953909
O          -2.75404647374059    0.33493340156493    1.34629105842994
H          -2.49664563958050   -0.26360955756948    0.62923759045935
H          -2.49933274764012    1.22710733828374    1.02386618905436
O          -0.62954897041624   -0.33366589346543    2.63859242191149
H          -1.53981946477519   -0.04036669612437    2.31092061637157
H          -0.63652183575317   -1.29362662126668    2.61848181314302
H           0.16307801283258    0.15451018956349    1.49671564602114
N           3.35953484271636   -1.11677048733262   -0.69740850345627
H           4.01999732867121   -1.72228208566004   -1.16657467717050
H           2.06214399285855   -1.73632106876677   -0.12804021966802
H           3.86402745950231   -0.49874898307996   -0.07582263642833
H           2.86387450893581   -0.55958294850565   -1.38854408862744
