    23
        -45.36331591  Gyration_radius:  2.36078268716 Dipole_moment: 7.223
 S           0.18021313096737    0.61983534595479    0.58783287477552
O          -0.76803792389442   -0.53032415422992    0.18527100854119
O           1.08652002514834    0.09620882357817    1.57016008993554
O           0.76423713414717    1.20398657023625   -0.58011957994256
O          -0.75984134656906    1.65481607435317    1.23772220003635
O           0.73991625515066   -2.05435467232406   -1.84134233215245
H           0.07107659333609   -2.07124471568183   -1.15123700891834
H           1.57128846690666   -1.80410152185755   -1.39372145987274
O           2.73433446631033   -0.90675727579404   -0.37060770846816
H           2.28583371720182   -0.66474348320589    0.45360486910705
H           2.89161894690631   -0.07748864429524   -0.82907390089038
O           0.07833187707703    0.24747360969024   -3.07266009523007
H           0.33350324837118   -0.67877256082492   -2.86833971456700
H           0.54248231151587    0.77805009861747   -2.40807120228335
O          -2.08948208552554    0.46277152727504   -1.69970256744587
H          -1.38735668135535   -0.18159224230323   -0.57626069504867
H          -2.15863659495982    1.40322370570958   -1.51860894106982
H          -1.36070036608194    0.36428559324004   -2.39333518897912
N          -1.00134390628111    0.39182475084417    3.44372799237358
H          -1.72243636933288   -0.31649955515899    3.47940748999804
H          -0.94040696968650    0.84501225785797    4.34594523505566
H          -0.11178739333512   -0.05123167699945    3.22872177019007
H          -0.97932652604014    1.26962217533206    2.17068686486973
