    23
        -45.37236025  Gyration_radius:  2.33231299668 Dipole_moment: 4.493
 S          -0.52631143842822   -1.22799675289119    0.21038333658633
O          -1.01475276029863   -2.32509304865451   -0.58691411014738
O           0.91778248730020   -0.97542590054529   -0.04407266150582
O          -1.24381128105364    0.04510808629508   -0.38570846304867
O          -0.80192068208704   -1.29504086584043    1.62061751333945
O          -1.42719272179653   -1.23976214624688   -2.88020947553964
H          -1.31849884462257   -1.80080015703886   -2.06204454616403
H          -2.19231594587687   -0.69066654898890   -2.69058001051292
O           2.01688885484590    1.05316866846189    1.31522274350052
H           1.76101780070454    0.91169150588521    2.23696365534492
H           1.77684820756531    0.22399706153676    0.85843162888636
O           0.04124748865049    0.56661242709985    3.27061681351193
H          -0.26898092157828   -0.16412045879596    2.68610678841014
H          -0.14587781237738    0.27816241812776    4.16455526424644
O          -0.39994112534895    2.05847591955739    0.95340467887081
H          -0.67139580996000    1.89408822620661    1.86640502800809
H           0.57376761249270    1.88100514138840    0.97643871365606
H          -0.97507208390356    0.85340444235907    0.15594802873098
N           0.80012878939180    0.01345121382390   -2.36328912363712
H          -0.11772713474599   -0.43970024209468   -2.70419881482044
H           1.57692911562548   -0.20542426012512   -2.97914290642081
H           0.68946710174491    1.01831634289273   -2.26053267202304
H           0.94972112375663   -0.43345106241073   -1.35840140927632
