    23
        -45.37694094  Gyration_radius:  2.4224902096 Dipole_moment: 4.263
 S          -0.70515107503390    0.47259340983609   -0.04150489224365
O           0.41126206077202    0.02272052691549   -0.89869348238277
O          -1.72141486845125    1.16267333043471   -0.78634346354780
O          -1.31595502122587   -0.84702918416715    0.56035912672206
O          -0.20052569821515    1.21013799385094    1.10934261451529
O          -2.99021278729569   -0.10930536008932   -2.72623047616019
H          -3.92383258596857   -0.05157342450639   -2.51651396730349
H          -2.53462800473881    0.48486486224465   -2.08991548154303
O           0.61399742595888   -0.80834952769299    2.60879522644333
H           0.21646853963310    0.02316489285597    2.26947458301727
H          -0.04784555295396   -1.47976937024050    2.42135554533227
O           2.20661535998507    2.33595911215757    1.10080323322884
H           2.22476735850449    2.99983498908006    0.40968881756328
H           1.26342661421157    2.08115695944257    1.20551263980026
O          -1.27954183358675   -1.92477123568599   -1.76621123682882
H          -1.43625639314614   -1.41008809366616   -0.25635424474827
H          -1.98172421626666   -1.44925609676283   -2.26126929751107
H          -0.48612285042186   -1.38136504616292   -1.87832990333337
N           2.38040629717045   -0.29135667426872    0.70630547651553
H           1.87654787712721   -0.66160845358887    1.55477435582983
H           2.62737324349943    0.70672750515841    0.89937065674854
H           3.18085730363529   -0.85283634739964    0.43891302141709
H           1.62148879684036   -0.23252477772923   -0.06332887151515
