    23
        -45.36911167  Gyration_radius:  2.48394756105 Dipole_moment: 2.563
 S          -1.16620031228574   -0.61537683014756   -0.90365958655892
O           0.04118846175694    0.20846689906340   -1.03924104867083
O          -1.91357740914281   -0.73662290980495   -2.12680349009217
O          -0.63845969480612   -2.05661057513772   -0.49935587889456
O          -1.95083005416898   -0.17426107968982    0.24403496634794
O           2.30876224943009    1.84596743344093    1.83557329110512
H           2.54829227389571    0.98360082720668    1.48239905906494
H           1.96274741553526    2.35110561909574    1.09192246857481
O           0.22941953069845    2.61462193676064    0.00828834170306
H           0.19849516821620    1.76514748070022   -0.49206375397393
H          -0.30698397457893    3.23464352341031   -0.48675936764833
O           1.49320604108120   -0.77208632937025    0.90704229743475
H           1.08527411177003   -0.41815259551207    0.08152795782768
H           1.28278723545542   -1.70875790930006    0.89976140106780
O          -0.58980660244979   -2.78387107397019   -3.02525283545087
H          -1.11154805718881   -1.95219032029944   -2.98665507987221
H          -0.48060005174857   -2.49940036384869   -1.36074237708714
H          -1.19450860089920   -3.46694810029557   -3.32361475816519
N          -0.36897063797381    0.84296232924961    1.97928359185351
H          -0.11797578352448    1.75110104381813    1.54258890442069
H          -1.12951855985279    0.40524645666895    1.34579742590327
H           0.47245276308269    0.22836707294909    1.87974248177107
H          -0.65364551230255    0.95304746501013    2.94618597934090
