    23
        -45.37189586  Gyration_radius:  2.49499532237 Dipole_moment: 3.196
 S          -0.46830299065695    0.35899682357683    1.04196670562943
O          -0.26453140969690    1.02805130703476    2.44151712817676
O           0.36448864734848    1.08294687241113    0.07454893493315
O          -0.02504876959848   -1.01817046644034    1.16076194099279
O          -1.88226158773736    0.47049294728594    0.69468011858905
O          -2.25136311235729   -0.75000341081077   -1.67540529366783
H          -3.19046766987214   -0.88470957820082   -1.80952463609038
H          -2.16740504712990   -0.29017975795851   -0.81398909313015
O           2.98332209364529   -1.44997036731782   -1.73230294577544
H           3.62396776527543   -0.95550903881945   -2.24506296421136
H           3.00878346896108   -1.07002509858654   -0.82008945337438
O           2.62268207438980   -0.26511474603742    0.63682968271656
H           1.97874200162941    0.44030309798710    0.43852484219930
H           2.13126426395723   -0.85928494743219    1.21537969803975
O          -2.23206690648716    2.73997053601704    1.98862324525918
H          -2.97590806829532    2.65640163861518    2.58970357288987
H          -0.82552020295619    1.83358431780049    2.44519957934220
H          -2.31558787912781    2.01045564313751    1.34152891866304
N           0.38192927558032   -1.04214435942796   -1.44463516850417
H           1.30447263694917   -1.34058141550758   -1.83683285543080
H           0.23552771035445   -1.46531160106741   -0.50050768247421
H           0.41961817461749   -0.02557229646010   -1.17742675899835
H          -0.45633447879291   -1.20462608979989   -2.01348752577788
