    23
        -45.37254775  Gyration_radius:  2.44734865577 Dipole_moment: 5.406
 S           1.01798271651440   -0.65944735772628    0.09766094906476
O           1.75945560427437   -0.15981876305124    1.23763953747877
O          -0.15719201339025   -1.44657446409421    0.44540161634749
O           0.66203693226012    0.40430935985592   -0.84979689130551
O           1.95399638767629   -1.64854838711111   -0.69055949989141
O          -3.23922837620104    1.05735050116970   -0.74845056288147
H          -2.52542183092752    1.43604905637604   -0.15603987511386
H          -3.56772515143657    1.79564630721623   -1.26373710236070
O          -1.14912598522513    1.91204152991173    0.54265084557497
H          -1.05268838020056    1.49044185811449    1.42195621242326
H          -0.40580779033752    1.56454057562778    0.02045514827992
O          -0.54100362823290    0.27562846851234    2.59963372603398
H           0.40812296751239    0.26804442958595    2.39796565170983
H          -0.85933999965272   -0.55150170933771    2.22111864804686
O           4.10353047804090   -0.28355312459547    0.03378595334908
H           3.37812448306691    0.00901170191760    0.62039601662178
H           4.74036598850325   -0.73215208546765    0.59500710292669
H           2.85050628664024   -1.25254953700012   -0.65544411339694
N          -1.50868136955201   -0.71420043120827   -1.61770606387847
H          -1.25029745958182   -1.29240932539879   -0.77521938767248
H          -2.32584477762760   -0.07766382669827   -1.37388431549685
H          -0.62954380464715   -0.12340224624959   -1.65240989404136
H          -1.66222125747873   -1.27124254035246   -2.45042371181622
