    23
        -45.37189595  Gyration_radius:  2.49478417927 Dipole_moment: 3.195
 S          -0.61415961765226   -0.83900852342427   -0.59959591196294
O          -0.32946903907690   -1.31967852454463    0.74010809740229
O          -0.60940356745932   -2.08569970841855   -1.54492148169950
O          -1.92411186097165   -0.20245190692685   -0.70630906056123
O           0.44486158900700    0.07027551010344   -1.05272881994333
O           3.09765023889921    0.78616637334763    1.94536170475645
H           2.99446551559000   -0.01884793859507    1.38116795229934
H           3.86128700051500    1.25410532250517    1.60510965667173
O          -1.97341855483504    1.89575982033682    0.97737463531676
H          -2.88153653399627    2.17877875282466    1.09088068245640
H          -2.00356997061219    1.14630094624231    0.34641908864889
O           2.42883805657269   -1.18126161534819    0.26323536558914
H           1.78860217434359   -1.76068916833087    0.69169036882396
H           1.89964500657524   -0.72393067960802   -0.41677227369417
O          -2.28090624097209   -0.90299524272224   -3.22253074743764
H          -2.31522607470721   -0.41708891286091   -2.37367523777225
H          -1.07886174199943   -1.81117664170383   -2.36213360740493
H          -3.12752784712721   -1.34564262092355   -3.31660868247297
N           0.53587133540036    1.09710698913827    1.34760875927707
H           0.61975391738065    1.03737321435540    0.30082316241900
H           0.18376241173864    0.13446297808776    1.54987953720587
H           1.48189718092347    1.23419637082595    1.77216660806980
H          -0.19844338751570    1.77394520564651    1.58345020400972
