    23
        -45.37254671  Gyration_radius:  2.44748202913 Dipole_moment: 5.400
 S          -0.89683980106719    0.66921944902602    0.47647674213953
O          -2.10723898820881   -0.12632028440197    0.45033836521511
O          -1.17848974419686    1.94790596363510    1.34924096421061
O           0.21906613482162   -0.02854357268516    1.12766314809427
O          -0.48784774970888    1.18185623485840   -0.82419588477935
O          -1.39134258027647   -1.20244908730210   -1.93155802369549
H          -1.91066540218120   -1.05391911127206   -1.12580190762390
H          -1.06797178746326   -0.32269400282135   -2.15664604333634
O           2.95562982972547   -1.00963482480546   -1.55506741603374
H           3.68728010858703   -1.54936366418194   -1.25192450911575
H           2.12540185664682   -1.50749717338874   -1.29659501379899
O           0.78485631336990   -2.07631676148459   -0.59790585031314
H           0.02132418756345   -1.97718912965771   -1.20401797404798
H           0.57167379010071   -1.50649959253348    0.16098154679487
O          -2.90027797826666    0.61440345459925    2.85450524468138
H          -1.74335385768169    1.64547633009411    2.09170822585572
H          -3.81746140453807    0.89675376481269    2.82775364722547
H          -2.75549639171006    0.07386719173466    2.05274232729798
N           2.02825606546305    1.09569093408213   -0.29173631227901
H           2.60764505961454    1.89056940179723   -0.04724658343705
H           1.56327750230160    0.63124839863327    0.53988052149129
H           1.14884276438305    1.36737121564355   -0.80479826499939
H           2.54373207271848    0.34606488561545   -0.84379693954963
