    23
        -45.37998794  Gyration_radius:  2.33838273248 Dipole_moment: 1.807
 S           0.06721939933529    0.72842360973445   -0.63408667405512
O           0.96787017381266    1.97921321773136   -0.91581378804599
O          -0.68022037228708    1.00635636950403    0.56979463596984
O          -0.79169138034914    0.51461651858097   -1.79406298619411
O           0.98143684579943   -0.40778562567585   -0.44654983405917
O          -2.55223408947146   -0.91201113843314   -0.39751465603145
H          -2.86071900717335   -0.21644658683939    0.19036965627008
H          -1.99552983449053   -0.44175089324423   -1.05424410827138
O           2.18327778658657    0.32735732858011    1.83070171030878
H           2.31395352277728    1.27404611731894    1.75292629465812
H           1.87213922576183    0.03240100170564    0.95247823996770
O          -0.23562719271727   -0.31100589749458    2.85675626596046
H           0.73076385849134   -0.16593422493739    2.81566086908165
H          -0.57612931644244    0.35260402279120    2.22602123202507
O           1.02552362175777    1.37423888791700   -3.48118503203353
H           0.64473943094845    2.01204730189601   -4.08928701816169
H           1.23575167072558    1.88849169871754   -1.85580689443547
H           0.27475401914608    0.88230038270752   -3.08998788773075
N          -0.52579566398392   -2.03157437028051    0.92203575314784
H          -0.45867169307827   -1.50140381980820    1.85486435134289
H           0.20375794644232   -1.56653849038129    0.31302799264729
H          -0.38346371094868   -3.03125348690416    1.01225307899719
H          -1.44110525063258   -1.78639192319346    0.46164880864564
