    23
        -45.37350750  Gyration_radius:  2.30988743871 Dipole_moment: 7.157
 S           0.31198467379497   -0.95368486740231    0.49102560228623
O          -0.32748560452976   -0.92300230128079    1.78080034903479
O           1.55637020884918   -0.18477161980503    0.45378109099097
O           0.49993960682067   -2.29899246155938   -0.05791910528843
O          -0.64051935912167   -0.28295089752901   -0.56555128821166
O           0.78831191370478    1.76906944367434    2.07940743506647
H           1.24091278651481    1.08840530230947    1.54344400986248
H           0.39736149194434    1.28781738798669    2.81360435519002
O          -2.57984111368473    0.43281567007743    2.19896659138570
H          -3.31219139810503   -0.18285096410056    2.15576388764497
H          -1.76564423369229   -0.11076266930440    2.14296674045996
O           1.73028222375657    0.67251618452221   -1.97449111207299
H           1.09659191683589    1.39448699674120   -1.98400383763609
H           1.81994985819553    0.41816499762922   -1.01795220061619
O          -1.27024598459698    1.96606032229612    0.41072939276192
H          -0.92178719694832    0.64073343545690   -0.21785145678296
H          -1.97003724545560    1.65769196191750    1.01749800343936
H          -0.49584713518481    2.12391145304778    1.00229756062305
N           0.77139868102558   -1.71664301105736   -2.49513147566714
H           1.39132548936211   -2.32739515108806   -3.01778580535323
H           0.66816458373585   -2.05543730954104   -1.43176230127977
H           1.16674850210940   -0.72486886215641   -2.41930886191265
H          -0.15574268532801   -1.69031303083916   -2.90852757392472
