    23
        -45.37998791  Gyration_radius:  2.33841466011 Dipole_moment: 1.807
 S           0.48386784003838    0.10437917041081    0.83162801490073
O           1.01984503081034    0.81595789384312   -0.30488055774132
O           1.25338862936837   -1.09014529972513    1.16297436366243
O           0.54361423056617    1.08029353754201    2.05594033768938
O          -0.93479415094199   -0.22823480684988    0.63458952568614
O           1.57061446425003   -1.75852874540548   -1.39428319678428
H           2.11249113654150   -1.01251779235271   -1.66717858164711
H           1.52018184497486   -1.67392294351159   -0.41826785218741
O          -0.51266282682646    1.56409555124688   -2.36774898485389
H          -1.18875454504595    1.96906302081050   -1.78851639109108
H           0.25729764700606    1.48610757751561   -1.77178341678928
O          -1.87744118775315    2.16436633262065   -0.11184909747331
H          -1.64153811735116    1.28652066571658    0.24698247088306
H          -1.41801458376917    2.79974846812354    0.44004365554295
O           0.61573820706521   -0.97454818616445    3.70593439358377
H           0.85580476119359   -1.31355120673535    2.81926170542159
H           1.39835961146945   -1.06921744803993    4.25381020681168
H           0.45016223523199    0.50123180415263    2.84307974775475
N          -0.92735765989410   -0.95842011164568   -1.86497408826227
H          -0.84283980668830    0.02998499946804   -2.27930975339705
H           0.02523703153331   -1.40803079856354   -1.87137092720048
H          -1.12682682262289   -0.78747015468210   -0.84012685107677
H          -1.63637298914995   -1.52716153776846   -2.31395474343270
