    23
        -45.37998790  Gyration_radius:  2.33836421827 Dipole_moment: 1.810
 S          -0.25315803978735   -0.79427027719348   -0.49218759564770
O           0.64033400799382   -1.91192980366536   -0.20712274725514
O          -0.83589990649891   -0.26374944202416    0.74904321195324
O           0.38540939418509    0.24809028174113   -1.26105548501917
O          -1.45038566271791   -1.33078805878625   -1.34879803969688
O           0.28855990198115    2.81957373825259   -0.52593038340514
H           0.44587609139588    2.01933041580812   -1.06356424988015
H          -0.68152420135161    2.80386183637299   -0.40179311997252
O           2.70530340071274   -0.30906086388505    0.29568871184844
H           2.04933640482224   -1.02853311547927    0.17575766636272
H           2.81267978305900    0.06060484204195   -0.58549457619608
O          -2.20550567052937    1.81946231900369   -0.22762638847115
H          -1.82134334590115    1.02864005363648    0.19910298142759
H          -2.57957191329201    1.50959970302110   -1.05437319849131
O          -1.32628272804533   -3.64611442393276   -0.09374075498444
H          -0.47515212130069   -3.18961202405458    0.06702794857167
H          -1.67744897309209   -2.19722336819694   -0.94730857971605
H          -1.12317922751196   -4.42097968462142   -0.62284459171497
N           1.03760479814759    1.37750301850523    1.51015422577315
H           1.85878815770497    0.81301805950566    1.16838475031364
H           1.16455545159475    1.73035143099575    2.45205830942439
H           0.82547373104383    2.14527899471486    0.78796449649750
H           0.21553068738689    0.71694636823935    1.42665741828380
