    23
        -45.37068248  Gyration_radius:  2.30528056112 Dipole_moment: 2.014
 S          -0.98817075249423   -0.52268667372179    0.16388967816483
O          -0.08522330349529   -1.51470521166012   -0.44357295232263
O          -0.43751053882907   -0.03881921290063    1.42208751213502
O          -1.24531694088593    0.57335259519544   -0.76356545935930
O          -2.33780682562142   -1.22474068598282    0.43825964717383
O          -0.00493972476747    2.88541120987581   -0.38640191535110
H          -0.57555010697198    2.08794999302016   -0.46897844845557
H          -0.48473463495574    3.49898143952407    0.17135882993954
O           0.44471112417922    1.18333045508560   -2.73193739484499
H           0.56215612783127    2.10726098599442   -2.48438790431509
H          -0.34485741620749    0.88746396311472   -2.23141224603172
O           1.90715009302537   -0.29447876303034   -1.25852998402565
H           1.46295140195244    0.28227605062575   -1.98282652961086
H           1.11886213593154   -0.93493509047135   -0.95218535837146
O           1.76655135406052    1.20075597923556    0.74084557101961
H           1.02166593128847    0.72294006247322    1.18063958410405
H           2.00912234795891    0.34296012108333   -0.41476718114159
H           1.34291915858285    2.00720368351251    0.38107838383137
N          -1.00374784442497   -2.77403164287078    2.03110440661736
H          -0.38971987211591   -3.20067741181214    1.34815628547228
H          -2.06549481505535   -1.94422941235355    1.07697130041814
H          -1.12061605201502   -3.40741407432069    2.81189384776504
H          -0.55240085702282   -1.92316832966582    2.35228031720220
