    23
        -45.37068255  Gyration_radius:  2.30521473592 Dipole_moment: 2.018
 S          -0.96884332152677    0.35327484315435   -0.46183056864263
O          -2.31656008018598    0.83289524115388   -1.04751060802598
O          -0.00968636539813    1.44033076816592   -0.62304409178062
O          -1.15361963918602    0.00847346433777    0.94075870149569
O          -0.54516545975256   -0.82979254281586   -1.22960511515387
O           1.68500966257327    1.95227432342697    1.35055230828417
H           1.36011777155178    2.58932240845953    1.98807306722633
H           0.98388474144769    1.87031580748428    0.66505273944815
O           2.53146819311829    0.99499602668002   -1.28963022884167
H           2.91865887795484    1.45829968075694   -0.53860892269670
H           1.59352375903941    1.28088834624565   -1.30513444862988
O           1.78703600601063   -1.33520466706728   -0.57563651718214
H           0.79464912748597   -1.23390628647561   -0.93703616330520
H           2.24600153710217   -0.48837849388773   -0.93138181414678
O           1.23617744044091   -0.66914410444728    1.77077680891785
H           1.65669952336248   -1.16843064502393    0.46551207591751
H           1.60191135009921    0.23735665134421    1.83208477137183
H           0.27129467434000   -0.52075146045906    1.61710366620045
N          -3.24830286738861   -1.47334609653513   -0.32026871358996
H          -2.90081767330451    0.03706163102156   -0.88876971694308
H          -4.11389070833854   -1.95828014753401   -0.12017915008495
H          -2.66810708785769   -2.06051258146172   -0.90683970166787
H          -2.74143947159188   -1.31774217651617    0.54556160181962
