    23
        -45.37883947  Gyration_radius:  2.32581747305 Dipole_moment: 4.372
 S           0.89118172538700   -0.02976060540428   -0.33745467260766
O           2.16407161265391    0.46939867799563    0.44776644105429
O           0.53526979005449   -1.29554813950084    0.29488635579999
O          -0.14015919360323    0.97843211738448   -0.12539885766721
O           1.25080400756596   -0.17293148242931   -1.73617676130536
O          -1.08590376222822   -1.52102673250861   -2.00440225290221
H          -0.78492293633254   -2.27508050585078   -1.49127135861063
H          -0.28834842796074   -0.97856576223852   -2.12586266709881
O          -0.19540007673841    1.21620917799291    2.48877635118997
H          -0.16635601833449    1.32800193709546    1.51153304498786
H           0.71734659222787    1.08347072747259    2.75242541111421
O          -2.64960124472292    0.07933827274895   -0.46727008498153
H          -1.92639294417830    0.73208531955236   -0.45748051789279
H          -2.35751072749708   -0.55634629567283   -1.15059223946899
O           3.04683375221167    1.73923594739885   -1.69025827465722
H           3.86800240117391    1.44272888169279   -2.08946569409913
H           2.35100513836109    1.12488280891850   -2.00161967573901
H           2.62075783881833    1.08406698060715   -0.16561880485326
N          -1.59980677281773   -0.91476951529878    1.70427623164596
H          -2.03091062887618   -1.64605046289533    2.25780646351951
H          -2.22748840240167   -0.54710733429039    0.91461243957008
H          -1.27302199016849   -0.10628336999685    2.27828849519829
H          -0.71944971256883   -1.23438064278138    1.19250061781962
