    23
        -45.37883954  Gyration_radius:  2.32578291277 Dipole_moment: 4.369
 S          -0.59615348224720    0.21398914621381    0.71242023442065
O          -0.64084184536957   -0.45802779694582    1.99792872369935
O          -0.55399562941389   -0.71986668506434   -0.40615910194683
O          -1.92750620886243    1.04242403453134    0.54532362244756
O           0.47242378816917    1.20299781948927    0.61989087907196
O           1.90987513741806   -1.60328365409042   -1.01835075142255
H           2.19006221779484   -1.54719172970131   -0.08316117315923
H           0.93875072048543   -1.63899785299258   -0.95024865297995
O          -0.90381354266549    0.84553447994113   -2.48498370285451
H          -1.49807171447538    1.52666507608300   -2.16368833108671
H          -0.91639885133899    0.14700930924208   -1.79209851513667
O           1.99721888505500   -0.95313040570933    1.61610300858083
H           2.25368486556061   -0.03361339647169    1.72200374984355
H           1.05832342899964   -0.97207439162716    1.86744951204853
O          -3.25403084012200   -0.69695472386132    2.02162790776820
H          -2.30322266446704   -0.87257087121984    2.17537628227824
H          -3.61355338404915   -0.40006855692776    2.86081850546882
H          -2.62676367522542    0.49330493968088    0.95994232397671
N           1.63830696508733    0.90843465005995   -1.66988007736557
H           1.91085903779832   -0.12416858448672   -1.55899291971490
H           0.79958327684098    0.97070533768493   -2.28829156015008
H           1.26247312177271    1.17037953047470   -0.70587215203438
H           2.40279041325711    1.49850433568273   -1.97715781175446
