    23
        -45.37647182  Gyration_radius:  2.33808003319 Dipole_moment: 3.438
 S          -0.72365914057782    0.30852569660358   -0.65047173856194
O          -1.99282490771917   -0.03184044453037   -0.01149727364829
O          -0.17165311102143    1.56495665111153   -0.15848445205412
O           0.23970033601067   -0.77460236444971   -0.51706566773800
O          -0.99808086012467    0.53205326422606   -2.17573510502367
O           2.18522069360718    0.86306095207503   -1.56098452209586
H           1.74269155358239    1.71039905910141   -1.46528178058527
H           1.47266976643702    0.21162692003170   -1.47858984712932
O           2.72017509981681   -0.68313186956503    0.63663279976130
H           3.01581794069249   -0.09883011979604   -0.08270906428884
H           1.93677744758597   -1.11264421888805    0.25186002567192
O          -0.92187447641146   -1.00759438491016    2.19802470609913
H          -0.58080807752029   -1.83968221218679    1.85987737308991
H          -1.45390375033601   -0.63759243487737    1.45822027406996
O          -3.06642605244418   -1.11373388404553   -2.15103755793773
H          -3.91560133809688   -0.71554231937163   -2.35548487018123
H          -1.69094759604248   -0.11411600626914   -2.43072164261677
H          -2.86769597513064   -0.88226356100347   -1.22079695025344
N           1.03219212163396    0.78603284564890    2.00791041782136
H           0.30309150717658    0.08613036809866    2.30868256752544
H           1.29145501705720    1.42499584140567    2.75113891978317
H           1.85834999362997    0.24317476149820    1.60746895407141
H           0.58533378819375    1.28061747009234    1.17904442422213
