    23
        -45.37618764  Gyration_radius:  2.32673960971 Dipole_moment: 4.940
 S          -0.91340620159988    0.58249444048585   -0.02968760586433
O          -0.02208496235714    1.67331162078553    0.66414321723281
O          -1.71815608850427    1.21010889478429   -1.04293839998637
O           0.03521908130534   -0.39807248412565   -0.59334340065447
O          -1.67354806349871   -0.02044461009527    1.05942418256384
O          -0.49103097224040   -2.95572748019293   -0.12836903476260
H          -1.37124645271654   -3.12824459765497   -0.46649020508476
H          -0.25363118015265   -2.05369145924030   -0.44244810591258
O           1.88357612856162   -0.30942333271211    1.29490020036284
H           1.36751067885490   -0.36272731108745    0.46016808865814
H           1.84859992190511    0.61963781516146    1.54038740135541
O           0.07863654803402    1.05015901645300   -2.95882775646181
H          -0.75787981211401    1.11377343295675   -2.45191735840668
H           0.49189656997332    0.25061431309373   -2.61664569497280
O           0.90164417000559    2.97902141963593   -1.36502780917365
H           0.36423725421882    2.22362588249293   -0.07600312435234
H           0.73389091040451    2.31026714701400   -2.07940084262905
H           0.30626814587813    3.70894677778528   -1.54922414923183
N          -0.15680206148985   -1.72275473979213    2.20310288055941
H          -0.86879649951968   -0.98011447483820    1.85528616364609
H          -0.33200781538788   -2.03741389016349    3.15031074841963
H          -0.23733340096241   -2.48600209505560    1.49326764422450
H           0.78444410139803   -1.26734427568166    2.07933295047202
