    23
        -45.37199747  Gyration_radius:  2.24485100764 Dipole_moment: 3.558
 S          -0.37599757905735    0.73617236391390    1.07347168281202
O          -0.66044964288742    0.71395704306549   -0.49522659035949
O           0.45151330543946   -0.44450420603703    1.32586799953484
O           0.30448352201270    1.97739049716329    1.35581210653778
O          -1.68998097908145    0.57663292530219    1.67947093577072
O          -1.29477266240699   -1.77358575938058   -1.55344001864228
H          -1.45873033449858   -0.82907634018016   -1.66271974735847
H          -0.30952231646776   -1.83221497041883   -1.49473146428946
O           2.40114457719939    1.15566938400144   -0.14667237006550
H           3.04182493157257    0.61682559280645    0.32097641318424
H           1.74279711107780    1.41887551226452    0.52096003189183
O           1.28899404637828   -1.48991037258838   -0.97011830959597
H           1.07520191967583   -1.13871721083763   -0.07971726628296
H           1.73998035212081   -0.76132685715810   -1.40655853685066
O           0.49561585727319    2.95509971330196   -1.17290287440245
H           1.39464899367500    2.62149630732497   -1.28635365656539
H          -0.30313053894292    1.55346761638807   -0.88733953231707
H           0.42200803923549    3.16686048934653   -0.22998807813609
N          -1.68816698227830   -1.88948185562545    1.03032192064394
H          -1.97473982825906   -0.89152633261160    1.31280047349479
H          -1.66804932781569   -1.95554698779708   -0.04339513090852
H          -0.69912067892970   -1.86726666378630    1.33541576298644
H          -2.23555177503544   -2.61928990845369    1.47406624891663
