    23
        -45.37883976  Gyration_radius:  2.32584984395 Dipole_moment: 4.369
 S          -0.38460832212763    0.85684134618228   -0.16941122657619
O           0.79257400641876    0.32460596735920    0.50592708903659
O           0.14813435691043    1.88303073217374   -1.24148000059995
O          -1.06416988357268   -0.17473618002494   -0.94560593635388
O          -1.27131194178723    1.56692172941075    0.73378833384849
O          -2.03473530587080   -0.88164941717668    1.61035510403590
H          -1.80855254383903    0.05835443034231    1.50803003256548
H          -2.49017811308321   -1.10749410791438    0.79547906189247
O           0.40819225157470   -2.06299992719502    1.67973262900435
H           0.80853209219069   -1.18431948508114    1.55058528681196
H          -0.52708848805502   -1.84875377999362    1.86853659852098
O           2.29376116491361   -0.49212767815360   -1.48744987280773
H           2.11750465761002    0.14162044130984   -2.18566624024299
H           1.89959213754212   -0.09718118764487   -0.67696823404379
O          -0.01897785194900    3.86077421066030    0.49759543485891
H          -0.54132901402988    3.12094299018387    0.86947067543715
H           0.26864595402000    2.72568048257599   -0.75376135986554
H          -0.64150407705894    4.56997688198200    0.32131696724033
N           0.41150837229540   -2.29880268254109   -0.91851405266236
H           0.46836526024032   -2.41900700404578    0.14691047806211
H           0.15984156255729   -3.14890442269111   -1.40946280533622
H          -0.29972853900739   -1.51265043660956   -1.04159288633437
H           1.30553226395533   -1.88012292313217   -1.25781504636019
