    23
        -45.37647186  Gyration_radius:  2.33816720385 Dipole_moment: 3.439
 S          -0.29556808529134   -0.05293017257186    0.97534570828829
O          -1.13155267988710   -0.93171984740381    1.96560923729056
O          -0.36241515719945    1.33140567060341    1.43810662105378
O           1.05955555401896   -0.58913048101681    1.01620932646435
O          -0.87390724292726   -0.19212024012745   -0.35327440664310
O           0.46532345206878    2.40672861218110   -0.82904645827258
H           0.19225997297869    2.14544665624679    0.07891624979405
H          -0.32240595234580    2.28335329914268   -1.36505369131251
O           0.33272531174217   -1.14027801129173   -2.61928306510930
H           0.37279480470836   -2.02206171155740   -2.21046907164116
H          -0.36512746178209   -0.69977042544187   -2.10423443706939
O           0.03595683541001   -2.78478614851534   -0.44804182558380
H           0.66671249288990   -2.75346783094455    0.27593635539179
H          -0.52595218669563   -2.00798269396835   -0.30777589027892
O          -2.70727076171720    1.09382226455454    2.59837744952114
H          -1.89694037813774   -0.38468646932261    2.24425826594099
H          -2.67335213710149    1.37437449427383    3.51578209090334
H          -1.91367215050648    1.46773155705586    2.16388393666400
N           2.03148695239561    0.29446690449162   -1.22512784267565
H           1.50425482512495   -0.30253408979497   -1.93450457013399
H           3.02739497011645    0.35102353783985   -1.40632106221780
H           1.56870623209850    1.24146567675872   -1.19493915711217
H           1.81099279004108   -0.12835052118621   -0.27435376326174
