    23
        -45.37110812  Gyration_radius:  2.35483467285 Dipole_moment: 4.198
 S          -1.08501199498120    0.25995879351788   -0.78000628156994
O           0.29356203267916    0.50405952526336   -1.25338135235661
O          -1.81646361573700   -0.55827619684886   -1.73588287992092
O          -0.91671174265149   -0.68028028634254    0.47669084049020
O          -1.74467635492716    1.46577005858769   -0.35963896077254
O           2.08214179456340    1.43528348656973    0.46015953604404
H           1.47439722842681    1.12231628872785   -0.24512593365931
H           1.99022621964966    2.39042814564742    0.47496849160018
O          -0.95268461492597    2.87658525280173    1.71714343713475
H          -1.24819883114216    2.44698466675420    0.88231798779410
H          -1.74862611846677    3.21737336977577    2.12788296738648
O           0.48324438794856   -2.98256741794906    0.21114875067143
H           1.22069314078898   -2.88816912608946    0.81754359729791
H          -0.15841453010919   -2.28782438993246    0.45755107725378
O           0.31965579933350    0.59591027630960    2.27070701766214
H           1.13849176526370    0.81907978671353    1.77225156655678
H          -0.16761446259400    1.44733033234752    2.30843089514233
H          -0.45448969542027   -0.16621476725468    1.24348016122706
N           0.28989895066151   -1.85162646730401   -2.20556758871117
H           0.67714630133533   -0.89853965368956   -1.95722301036827
H           0.48565290594076   -2.50494095127508   -1.41496744136605
H          -0.74969184511906   -1.55570519754473   -2.16124591667876
H           0.58747329941248   -2.20693550884157   -3.10723695094937
