    23
        -45.38117599  Gyration_radius:  2.29794409079 Dipole_moment: 2.261
 S           0.08367771797865    1.45619442935924   -0.33206495251887
O          -0.59272902124257    1.99530070145019    0.83051004441419
O           0.26508633347053    2.62277569999316   -1.35404065651489
O           1.41605786466072    0.94053639875546   -0.00980807159565
O          -0.71492099366678    0.41757029024210   -0.98084612261406
O           1.10921287366289   -1.18470613032316    1.56229057161650
H           0.85295138426312   -1.77058405484840    0.82314144462041
H           1.41830038786603   -0.37257213685789    1.10875618604353
O          -2.53690607233727   -1.19059178286596    0.14052059661943
H          -2.11047297864139   -2.01085815342847   -0.12913795631321
H          -2.10084666276016   -0.50137884728635   -0.40091179441785
O           0.15514075365885   -2.06902651369804   -0.81608085726693
H           0.77042200819948   -2.26501932433647   -1.52398375632776
H          -0.12707446946241   -1.13601710040127   -0.95931228773271
O           2.14712985704989    1.12286861971116   -2.50408611502965
H           3.00851428453153    1.53550714155074   -2.59832098977253
H           2.05585540210381    0.88383619379198   -1.55684018169186
H           0.84170054304858    2.23205355208679   -2.03797520587365
N          -1.20689985314504   -0.14701096689977    2.18572339229863
H          -1.03613258854642    0.81138384001301    1.76249652681034
H          -0.26415125688817   -0.65069716395646    2.11376688223803
H          -1.55076868153901   -0.08478098810659    3.13740152956178
H          -1.88314683228557   -0.63478369396102    1.53880177344747
