    23
        -45.38117593  Gyration_radius:  2.29762349562 Dipole_moment: 2.260
 S           0.41874228411971    1.38499441287599    0.38183610662104
O          -0.92223762409393    0.88927014063569    0.07618186463683
O           1.14811913662724    0.40313283616306    1.18757941041644
O           1.13641220721298    1.74863129356862   -0.82336200782639
O           0.26153159726306    2.67740314074429    1.24400676032448
O          -1.38933987592441   -1.67916148033503    0.46677460848392
H          -1.24973321537083   -0.70579630377865    0.40526226415418
H          -1.66249705012501   -1.84466906478910    1.37013586259244
O          -1.75627145551348   -0.31173867619002   -2.16534112276104
H          -1.62795805184561    0.32991625550996   -1.43724898969418
H          -2.07211432851798   -1.10915646986760   -1.72741064670685
O           1.23482860403382   -1.87504395663657   -0.18485795924690
H           1.41206358286267   -1.10809654807727    0.39927125898337
H           0.30923846068146   -2.10792536514649    0.02546492229638
O          -0.21265487283714    1.05856647943364    3.31048587549873
H           0.35223850648769    1.18400486561934    4.07618238990763
H          -0.09717651402562    2.34051130317800    2.08701587311716
H           0.33167350269443    0.59749377137352    2.63667935070939
N           0.89245258133097   -0.38485168029233   -2.30427410939187
H           1.07980270241171    0.54932783796044   -1.83631711303968
H          -0.14875618037519   -0.42283934710841   -2.47247432195981
H           1.43119217033417   -0.49652994363092   -3.15579639764092
H           1.13044383259985   -1.11744349124412   -1.55979386948368
