    23
        -45.38117598  Gyration_radius:  2.29785347348 Dipole_moment: 2.261
 S           0.19130207837390   -0.89665877103763    1.18233617412422
O           1.02591226161669   -0.77059204222042   -0.01139029903722
O          -0.91447286401322   -1.80664969596043    0.96140506915911
O           1.07701867702586   -1.49888533548452    2.31858149345610
O          -0.25720770053914    0.42499714588132    1.62626767288783
O          -1.58685529362429    1.55176287301601   -0.38504323681459
H          -1.24974894983998    1.25797253156043    0.48719560859502
H          -0.77262130524386    1.78248947412062   -0.87397258047145
O           0.96338211722378    1.52991916746417   -1.30369617426842
H           1.06126453800887    0.70275576067475   -0.77738440265122
H           1.59912723744115    2.14621928283216   -0.93752812463338
O           0.29687408992071   -1.09645256738791   -2.56601969050421
H           0.71513605342838   -1.21038661775185   -1.68834874208361
H           0.57773529300830   -0.22088301701264   -2.85212951312613
O           2.09473194881946    0.94880455136614    2.61690807388729
H           1.19148475837325    1.00143061685632    2.23711925736020
H           2.03944322131913    1.31841054596951    3.50092010960922
H           1.71009617459703   -0.78129702219404    2.51141731162314
N          -1.98714119237715   -0.88816435771344   -1.23168152251679
H          -1.99651043181036    0.15172251222603   -0.97464613089771
H          -1.21747167311750   -1.03875223503122   -1.93790455385693
H          -1.67421633130210   -1.38403848227137   -0.34680186114564
H          -2.88726269706927   -1.22372430761538   -1.55560395860980
