    23
        -45.38117580  Gyration_radius:  2.29734434604 Dipole_moment: 2.259
 S          -1.49214364890601   -0.12188628310746    0.01510497954203
O          -0.88561099164278   -1.37445410001552    0.47123309537167
O          -1.73906473525280   -0.11868010525411   -1.41271559672254
O          -2.87208444915510    0.02085869020680    0.73202706169356
O          -0.66408532242309    1.01426119499613    0.41635315996224
O           1.13645031476705    2.33668532841866   -1.05745200583203
H           0.34278732909546    2.10239018480736   -0.53457859028471
H           1.87169309023806    2.19059915076538   -0.45294123738741
O           1.80097043711135    0.50673816923325    1.21142328362487
H           1.82544337235813    0.30807466509115    2.14844306776009
H           0.85638406945207    0.69491348806252    1.00396916087780
O           1.55888845921399   -1.52192195481093   -0.57006377836997
H           1.93529646684759   -0.88459436944084    0.06827811862097
H           0.66574505510173   -1.70187692629165   -0.20846416889259
O          -1.66111741092125   -0.91738424794756    2.91635157969914
H          -2.65102478656241   -0.12643973398872    1.67124113930352
H          -2.06448595884424   -1.69044471792068    3.31738176740033
H          -1.19843412739209   -1.23239278300296    2.11042854766540
N           0.66153028341039    0.10325431261090   -2.40937553417659
H          -0.36852233304555    0.01392515429325   -2.16921345400526
H           0.95883377003502    1.05672902010342   -2.06851434592912
H           1.15038456135045   -0.62900424273817   -1.79903927179822
H           0.83216654514561   -0.02934990405752   -3.39987698812732
