    23
        -45.38117586  Gyration_radius:  2.29751950908 Dipole_moment: 2.258
 S           1.04181834476195    0.33464111192044    1.02138068505174
O          -0.23370721351172    1.00178971020138    0.76566426697817
O           1.97496635874982    1.35717685745795    1.74396134044073
O           0.87646506303032   -0.80430206697733    1.90172946538598
O           1.68305671180906   -0.02996769973683   -0.24394603015933
O          -2.68606385175486   -0.06943267346999    0.80808333223092
H          -1.89131737698569    0.46182826448277    1.01858910595595
H          -2.90950591100264    0.18296920631409   -0.09398538587392
O          -1.24754502788749    0.80262326390126   -1.66297257009266
H          -0.83240142770277    0.95719404400838   -0.78287871557675
H          -0.90640275654963    1.49194968442713   -2.23435379241619
O           0.00474215569827   -1.60030612534548   -1.58491458122591
H          -0.56199465778817   -0.85592544998522   -1.86771720846688
H           0.78629439999537   -1.15330767502368   -1.19733266719114
O           2.39095139001385    2.44326887184665   -0.65677087716208
H           2.14737167094766    1.49733756906265   -0.75032471260483
H           2.15467824277865    2.02199600454782    1.05217644510465
H           3.30862961001130    2.51553316455445   -0.92842881905197
N          -1.03849754564787   -2.14846624201977    0.74749082714223
H          -0.67138541777314   -2.10692165255387   -0.25815036417540
H          -0.26347150182305   -1.72691932653274    1.33755373853533
H          -1.85493643563514   -1.48361175026941    0.82009425412703
H          -1.27174483375098   -3.08914710082501    1.04505226303661
