    23
        -45.38117593  Gyration_radius:  2.29772664672 Dipole_moment: 2.262
 S           0.66525249373681    1.32375575201474   -0.21053290010121
O           1.64528158280285    1.26002482243819    0.85496618730191
O           1.02032158799789    2.55449852691753   -1.10348800052964
O           0.71724131869209    0.13219920977145   -1.05611213685803
O          -0.69416074191306    1.52373626685637    0.29643464269463
O          -1.31434305534831   -1.54752103368146   -0.91929913279991
H          -2.01183884739188   -1.29294324723934   -1.52491581474692
H          -0.59826176983856   -0.88232287031618   -1.04318600770818
O          -1.39238898912590   -0.66345895251103    1.64232974528507
H          -1.56683760084338   -1.18036190529659    0.83141172638358
H          -1.27127219605259    0.24907226046271    1.30553933635418
O           1.51829061894439   -2.32919356837699   -0.37525790408214
H           1.45854564349494   -1.44244777941572   -0.78560302935935
H           0.69562639092475   -2.76317800435270   -0.62482419123983
O          -1.48108544637192    2.41960625428213   -2.02020046953789
H           0.25483296244238    2.62072147198924   -1.70560693074407
H          -1.42860796980058    2.03133578938293   -1.12057405789651
H          -1.99878387069368    3.22372532709039   -1.93913572208374
N           1.17316124053939   -1.06762064361666    1.93344026202516
H           1.41378980342151   -1.73111475941233    1.14880957448273
H           0.10552747784668   -0.99866566978048    1.98786595670017
H           1.59811346960268   -1.33284132414480    2.81484956389850
H           1.49159592695904   -0.10700591307285    1.61308929256332
