    23
        -45.36474161  Gyration_radius:  2.45561697717 Dipole_moment: 3.638
 S          -0.14512668538893    0.62451059164804   -1.13967982444738
O           1.23573513133943    0.69138627939565   -0.71796898913623
O          -0.77655255987467   -0.66467760571252   -0.63968566382017
O          -0.88865103355889    1.74537507880180   -0.35000201923204
O          -0.39863823627625    0.75963148196483   -2.53520145712990
O           2.94639865379047   -1.30681799756501   -0.14711027803087
H           2.34057957873750   -0.60979483746609   -0.46130878044163
H           3.69924518603333   -0.84924399386587    0.23251209500887
O           1.45567865659633   -2.74701637248796    1.54946680592710
H           2.07059322742457   -2.26342889217341    0.95253386420439
H           1.14336462170317   -3.50342226863150    1.05042011451313
O           0.94345854168864    1.39130563622385    1.84534394168247
H           1.21152498767736    1.23253948054981    0.92022969030556
H           0.31821875447051    2.11856455282920    1.80510270904498
O          -0.40413994623803   -0.89946749198996    1.78697263478368
H           0.26177630211737   -1.63585018737572    1.83267580643210
H           0.09305887715801   -0.07401682491669    2.00545534316168
H          -0.65055628457546   -0.78969466200221    0.44142044725794
N          -3.02569490490785    1.36314289213029   -1.71739655089734
H          -2.38762683748449    1.05295916007119   -2.44701312391217
H          -3.56586844290822    0.56684195249501   -1.40521134521889
H          -1.81985603099090    1.74167922892686   -0.76238287965276
H          -3.65692156649779    2.05549479919205   -2.09917253039005
