    23
        -45.36829338  Gyration_radius:  2.45751209712 Dipole_moment: 6.319
 S           0.88936927763073   -0.55871699417259    0.01378239626985
O           0.46593129295271   -1.88845174808010    0.38629949683606
O           0.53401940668910    0.45185650407439    1.04103242043772
O           2.27951601732073   -0.43410789398594   -0.35862877199582
O           0.05223397767504   -0.10732263657444   -1.24891238790563
O          -3.25945545387063   -1.09460029893190    0.60449496071852
H          -2.56749777381950   -1.09047584182045    1.31061906233569
H          -3.95233151873928   -1.67872766602116    0.91655834465703
O          -1.22838604792967   -1.20737001605207    2.32083505085495
H          -0.61472489442543   -1.69748121562039    1.74095777954477
H          -0.81995157181359   -0.33469097171006    2.36306112065957
O           3.22797455623432    1.86934463327590   -1.04106089623399
H           2.95582123982090    0.92414765201725   -0.88270446570318
H           3.96547720069465    2.02341620575677   -0.44760617758115
O          -1.62249861174304   -2.02210680505589   -1.30909169551248
H          -0.64436933214256   -0.82321022746539   -1.40801249510869
H          -0.99326712933997   -2.47490658623069   -0.72735942198342
H          -2.33287273295662   -1.68186040459391   -0.71729195932017
N           0.72026399590960    2.41666748056042   -0.51764872309151
H           0.60936153813694    1.64626865829545    0.27950379659696
H           0.36793215278285    3.33215047507253   -0.25873794954961
H           1.75629595906423    2.41305958055727   -0.75263696515370
H           0.21115844187361    2.01711811666390   -1.30745253974166
