    23
        -45.37187215  Gyration_radius:  2.45106487798 Dipole_moment: 5.605
 S          -0.80278614091495   -0.55175523225526   -0.29162461668607
O          -0.62686211703844    0.03267827948651   -1.62233958379183
O          -2.25349635853078   -1.10121921327588   -0.26790113712868
O           0.11949992267470   -1.63744210989390   -0.02346152908755
O          -0.71115370619699    0.49528476321070    0.74254693473927
O           2.01114881520899   -0.36962750057138   -1.59381832324781
H           1.97838889649764   -1.05839790322648   -0.92043333859737
H           1.07334200903968   -0.27333983295548   -1.84607860103969
O           2.57472181638826    2.13950660193895   -0.99614073817644
H           3.13679625732124    2.46318243507314   -1.70202690200380
H           2.48395736003478    1.16378532476944   -1.14904373637715
O          -0.04063915659617   -1.43210736830441    2.60514615814629
H           0.22450194538629   -1.65403791036494    1.68936131042477
H          -0.20869927087541   -0.48390879223278    2.56020160368192
O          -2.41388650806808   -2.40401493583385    1.97677816564633
H          -2.40204283405133   -1.58341979970217    0.59512815539920
H          -2.26760192457751   -3.33094149738003    1.77553053397382
H          -1.57467543256944   -2.07878903254231    2.39274773262593
N          -0.05977408559490    2.39506182352540   -0.79405420006942
H          -0.36591545503653    1.69132303350335   -1.50803767664234
H          -0.31536468192213    1.80929819559033    0.07317943095230
H           0.98855326261980    2.48746167570458   -0.84685578404029
H          -0.54801261320563    3.28141899573947   -0.84880386870309
