    23
        -45.37792784  Gyration_radius:  2.34673779417 Dipole_moment: 2.490
 S           0.74753031332283   -0.09692262477484    0.64442089401598
O           0.93818055122087   -0.72515890964599    2.07528095033244
O           0.88432932377859   -1.20664678335377   -0.28239423989873
O          -0.60007280042762    0.46272664541841    0.61599962364285
O           1.76645937956542    0.92646226627516    0.46599047315196
O          -2.10686944145106   -1.66451782163806    0.99301906359223
H          -1.59456306071297   -2.20938952439194    1.59328430856613
H          -1.64910247599707   -0.79384387151815    0.97950493439959
O           1.12601780558220    1.43163572743480   -2.08960340835823
H           1.41053563160856    1.19384953011460   -1.18599038383933
H           1.54776168637447    2.27076271420384   -2.28647653845369
O          -1.52772792922056    1.01113476872550   -1.84464246378526
H          -0.63774601500064    1.24400908591210   -2.17544434522138
H          -1.42019600095467    1.06213172477737   -0.87627248846003
O           1.84827301745841    1.57656232219076    3.00397528306760
H           2.75644288963741    1.57867380226842    3.31498626408669
H           1.89075448032924    1.61726706963163    2.02630156366441
H           1.17249669814363    0.02988123012521    2.65426089177768
N          -1.33101969901856   -1.57315988602079   -1.56167607502880
H          -1.54491814072998   -0.56241463083377   -1.85042469635294
H          -1.42881016691192   -2.24107478698570   -2.31729534651122
H          -0.33950850777848   -1.52541634435243   -1.17121536907549
H          -1.90824753881599   -1.80655170356097   -0.72558889530857
