    23
        -45.37874216  Gyration_radius:  2.34131922843 Dipole_moment: 4.658
 S          -0.56188321817698    0.20890584023857   -0.94996943562091
O          -0.68629414721746    0.25761505370607    0.51048509422913
O          -0.97778020084408   -1.08479498653510   -1.47157359892206
O          -1.51087164294898    1.27641519656138   -1.54632339130054
O           0.80830776816914    0.53494567773665   -1.34639876473803
O          -1.38573088201776   -1.79765676740632    1.98801992377616
H          -1.14883719409408   -0.95390918233802    1.53185693703076
H          -2.34291613674908   -1.84427185562219    1.96727744816824
O           1.50452202181150    2.96435456360246   -0.56934849833896
H           1.77609260071924    3.46090165020632   -1.34295301202530
H           1.33642336500123    2.04746764524058   -0.88086133726571
O           2.09329952622761   -0.95507884880394    0.38330908916517
H           1.74344169275012   -0.38140862124463   -0.33971899028372
H           1.93936934380484   -0.45645851585039    1.18974428798502
O          -1.01736755681148    2.93299190360531    0.35288109608561
H          -0.93212153609558    2.11528586775466    0.86617939322035
H          -0.09822538369347    3.18546631574824    0.12425857812033
H          -1.44387895112032    2.05056784376801   -0.91228418108321
N           0.19072943379482   -2.76074126075296    0.09039214261099
H          -0.41530390622160   -2.67206684057664    0.94069420762756
H          -0.31903332724613   -2.19976592292338   -0.67020774735594
H           1.07741537380686   -2.20745935521951    0.26336044870312
H           0.37064296712395   -3.72130541089732   -0.17881969979893
