    23
        -45.36974326  Gyration_radius:  2.5101815981 Dipole_moment: 1.794
 S          -0.09114626452989    0.31129220736328    1.49524570301100
O          -0.94717703853003   -1.02491637962665    1.58312078294708
O           0.19165114303110    0.74994373087289    2.83495509183300
O           1.08513762370100   -0.08030039463866    0.72137131052969
O          -0.90939911689396    1.25680973495652    0.73353684200061
O           1.35901570039425   -0.70234113511002   -3.25542492545901
H           1.96643702968655   -0.12619144656845   -2.77909091459054
H           1.17971195476348   -1.44275117567611   -2.66741645619795
O           0.01715313554822   -1.81107872287869   -0.94464642463162
H           0.53427037683323   -1.28961528461527   -0.28880099797439
H          -0.61925834241034   -2.29721696489608   -0.41548635532464
O           1.96997683263976    1.33505593773849   -1.32935892532788
H           2.38602430286229    2.14058388957493   -1.02045363142061
H           1.76284729429962    0.80770416269138   -0.52444343633463
O          -2.06622707078436   -0.13206291530798    3.79495835482703
H          -1.26789695375498    0.41774811737865    3.64054224635002
H          -1.54903060604153   -0.85810904886500    2.33781301750986
H          -1.91291592042552   -0.60203254201735    4.61788784511493
N          -0.64411612278070    0.68009731179640   -1.73701411896437
H          -0.53637534243729   -0.35986358023111   -1.70675340113449
H           0.29431842235790    1.06184197982543   -1.95960850356255
H          -1.34032881036393    0.97432339940155   -2.41293647252415
H          -0.86267224715063    0.99107912881816   -0.71799661068304
