    23
        -45.37792783  Gyration_radius:  2.34623598895 Dipole_moment: 2.494
 S          -0.76266923715415   -0.30750943907982    0.55061879638397
O          -1.07371338188560   -1.56291670623067    1.44844434934516
O           0.65864483202337   -0.02234149081854    0.71956771444619
O          -1.06619505952554   -0.72376581830113   -0.80725089206249
O          -1.59795020161854    0.79066912490413    1.01264611936816
O          -0.83986323329323    2.46776628734087   -0.94042637268051
H          -1.17444181513639    1.83384771220768   -0.27713127119459
H          -1.11492841748345    3.33575700929319   -0.63758583760132
O           1.78135444493723   -2.22862186109139   -0.17989728554787
H           1.47664635521306   -1.42384315118573    0.29669552872477
H           1.17289936768733   -2.92188914184856    0.08249548539757
O           1.70503479504506    1.59444249434709   -1.15264528750847
H           1.59179196564028    1.14269885441786   -0.29528613826144
H           0.87110270232340    2.09576544928323   -1.24630338558862
O          -1.61153603740035   -0.00059658006607    3.51176487828468
H          -1.63200714366455    0.55834079932051    2.70771720529897
H          -2.51220327873279   -0.03265158902079    3.84241525671379
H          -1.19052691173620   -1.20512224932989    2.35326246764581
N           1.07952393324690   -0.68811670735523   -2.24671823455685
H           1.46259928815092    0.27764357736365   -1.97991879898990
H           1.07911327199093   -0.86369206352946   -3.24461906222869
H           1.59462186624047   -1.41066253837597   -1.69952567899030
H           0.10270188512833   -0.70520197224180   -1.81831953639721
