    23
        -45.37792750  Gyration_radius:  2.34640508559 Dipole_moment: 2.511
 S          -0.72045422287863   -0.44681208101918   -0.51078227816728
O          -2.29447846050586   -0.40838446044242   -0.51735397395319
O          -0.27877773796717   -0.89221030277734   -1.82375426857069
O          -0.27650340251157    0.91187600008064   -0.21614994205958
O          -0.36463278945029   -1.36773091385582    0.55437320938858
O           2.31768286494381   -0.98611175765482   -1.15360141466979
H           1.36741764441961   -1.02646160447131   -1.37543738729998
H           2.78580432317185   -1.03332762394547   -1.98989525691331
O           2.29086297723860    1.10740046825589    0.54918709798626
H           2.56319147049735    0.36410047654958   -0.02419094744280
H           1.42638882073277    1.36390217395038    0.17660598930961
O          -1.29671408129626    1.32712115929668    2.17623036872382
H          -2.12940170928196    0.85150930264755    2.15800461168452
H          -0.98446819707320    1.33688209850937    1.24340046389474
O          -2.30743464451696    0.17505536977156   -3.09556139739323
H          -2.53616174838488   -0.07199153660771   -1.40545681419560
H          -1.41584102695513   -0.16657880648290   -2.87738685933953
H          -2.71316830447690   -0.47600751793229   -3.67264471483032
N           0.93591990927354   -0.12161089307665    2.40720452856224
H           0.16508044346341    0.53022409128366    2.66749289717972
H           1.35135601884868   -0.59160498450137    3.20293211522778
H           0.46973616024884   -0.79262046946822    1.72133455327772
H           1.64459569245154    0.41338181189376    1.80544940960160
