    23
        -45.36866954  Gyration_radius:  2.27842292046 Dipole_moment: 3.038
 S           0.09396504667003   -0.14803017228761    0.83978041359654
O           1.17592253228184    0.40535007469359    1.80591295442104
O          -1.17308319563978   -0.26766887120171    1.53763342105856
O          -0.01649601464364    0.85328886208265   -0.25099137203567
O           0.57159087981183   -1.41132345098095    0.31672391915280
O           2.40107792871763    0.56662070797663   -1.37892798510776
H           1.55743664531019    0.83680939188266   -0.96756931205947
H           2.99030876488869    0.35920665046745   -0.65125182480106
O          -2.19492647921253   -1.81667232109602   -0.33351725708783
H          -1.97885339364610   -1.24498260888340    0.44023188146795
H          -1.66508295163669   -2.60920628854714   -0.20792861221920
O           1.10032568804225   -1.60612529200913   -2.24491196881110
H           1.74274743879812   -0.86373511612219   -2.26021476921461
H           1.02348152967282   -1.80173959757991   -1.28296734426177
O          -1.06974470155360   -0.40004925599671   -2.13497213053770
H          -1.64951434695606   -1.01442446205526   -1.55228939093707
H          -0.70197334040833    0.27347973801813   -1.43338317017318
H          -0.17152935457411   -0.96245314818462   -2.35798276563946
N          -0.45085655750491    2.30227994384649    2.48713629384962
H          -0.64499002948797    2.76721804392612    3.36464210043669
H          -1.15356662294425    1.58461898229596    2.32691232084932
H          -0.51924913346823    2.97884177509206    1.73796047927883
H           0.73300964748069    1.21869642465657    2.19997412878110
