    23
        -45.36425773  Gyration_radius:  2.42719935812 Dipole_moment: 3.729
 S           0.80546973872041    0.01235047077784    0.70114512067841
O           2.19518459192313    0.65634099588308    0.46948053226354
O           0.53269213518865   -0.07563407552675    2.10559099001381
O          -0.17471059075610    0.99077418909355    0.08288069872642
O           0.79699404141416   -1.24056843073859   -0.01958308190150
O          -1.59409702356412   -1.72489137509588    1.14894670414922
H          -0.73961474344632   -1.87697649824774    0.71875219718440
H          -1.38672274698071   -1.13851719837380    1.88279788216669
O          -2.90972888570371   -1.14058690618496   -1.13967851685893
H          -2.56038160013907   -1.29544157493979   -0.23724853767734
H          -2.97058961405314   -2.00518962317246   -1.55050590617310
O           0.81026708676330   -1.37590494631771   -2.67272327005193
H           1.68285451064024   -1.11829231775112   -2.97471876264785
H           0.87744559620265   -1.48676057483620   -1.70258452571939
O          -1.05211554141593    0.44198413361847   -2.14551882642867
H          -0.40949924514104   -0.21274047639742   -2.51121056196994
H          -1.84940257716110   -0.08169188033842   -1.86972464068529
H          -0.54922690684734    0.78184133080071   -0.94085124330002
N           1.71592466208069    2.49975089348813    2.20032726062396
H           1.11756343146639    3.22849750873840    1.83407603385586
H           2.33422329271184    2.90136918218523    2.89307731470935
H           1.12980442853793    1.79533430171479    2.64110262995370
H           2.19766595954745    1.46495287161999    1.08617051909687
