    23
        -45.36104617  Gyration_radius:  2.46924415929 Dipole_moment: 5.999
 S          -1.04835322835300    0.02673135505646    0.11987112595608
O           0.13901079798850   -0.92258698266203    0.42295473960759
O          -0.78309210295883    0.74236692025889   -1.09567799042191
O          -2.20229023260885   -0.95039321868338   -0.11963219865871
O          -1.29486434790381    0.82451734954389    1.28827681198110
O           1.61888886852366    2.06766367113060   -0.61944109143610
H           2.21603912380360    1.59356582548028   -1.23797759318477
H           0.72149696934620    1.84121523935732   -0.90464630604570
O           0.72403080256523   -1.09659392811380   -2.40918460792828
H           0.08490214720765   -0.41615343426985   -2.13762210163109
H           0.80808732238983   -1.67941571625885   -1.64963707350494
O           2.88769378061237    0.52377072294551   -2.43616525786151
H           2.17399927657060   -0.14727440801270   -2.49622479123440
H           2.98870407134520    0.88751544958312   -3.31702810164991
O           1.50968726671979    0.77989104610368    1.62748355775866
H           1.72716174327890    1.34553357402266    0.82743140030296
H           0.75181909906448    1.21031191436118    2.03940256514968
H           0.82249258891968   -0.34133158993245    0.95624349485072
N          -2.81511179530089   -1.31281910912974    2.33056834419812
H          -2.54500380086083   -1.22925021380574    0.81914442365274
H          -2.38318909542276   -0.41312184101839    2.52423241185437
H          -3.77988431845894   -1.29656285154470    2.63294407181673
H          -2.32222494647025   -2.03757977439908    2.83468415643924
