    23
        -45.36104617  Gyration_radius:  2.46913135474 Dipole_moment: 6.000
 S          -0.82751281825539    0.65507645277135   -0.02385678899852
O          -0.61376350739999    0.35827177093467    1.36406237924556
O          -2.32002539345156    0.52178189869069   -0.33721938437764
O          -0.32296045273374    1.91590649174247   -0.49094332217840
O          -0.20037835743261   -0.46820933510607   -0.88864895158218
O           1.96210602092612   -2.48951333336586    2.12080929456237
H           1.96787598014212   -2.75649341679625    3.04120428908683
H           1.03243813919171   -2.57110425968395    1.81691887491192
O          -0.60099285494045   -2.35649579246272    1.27189466797734
H          -0.73465156815839   -1.41718506963758    1.48415112713363
H          -0.59062893942298   -2.39788657983250    0.31177860715161
O           2.15145176397884    0.15759850306268    1.62020415459070
H           1.21490903546408    0.35492696307345    1.76818061811907
H           2.24903265537709   -0.80040358846948    1.81168925252885
O           2.09068483637936    0.51964174029105   -0.94569484091150
H           1.77965544367219    1.43117488546203   -0.98658612242459
H           2.31185773639374    0.36327779343422    0.02075392109065
H           0.79625884851025   -0.18674773564717   -1.01877915487475
N          -2.30433509805484    1.87475635526279   -2.50033115290321
H          -2.47021080903573    1.00734966200575   -1.24189287884085
H          -3.01503091150821    2.57022075071794   -2.68415506655483
H          -1.46371580907945    2.33077991115342   -2.15540693629419
H          -2.09206395055692    1.38327592239684   -3.35813257645006
