    23
        -45.37599614  Gyration_radius:  2.3890859934 Dipole_moment: 4.448
 S          -0.21190351849423    0.79708348302451    0.43080886841512
O          -0.55101877528228    1.28950503841986   -0.89096491643572
O          -0.10604349100336    1.80097728873291    1.45565066497098
O          -1.41003729937523   -0.16794141462929    0.80503316691989
O           0.97845919515866   -0.07600431599446    0.37094767653781
O           0.98752687137678    1.19300300635781   -3.02111394348262
H           0.36246265323123    1.38011563387257   -2.28163374621254
H           1.71204423065347    1.81113909253032   -2.91520026716754
O          -1.94933346395201   -0.97494510866318   -1.72627994145739
H          -2.03572071409355   -0.09561016704940   -2.11011799151885
H          -1.94255260587274   -0.81011319837351   -0.76685873915562
O           1.46226278460669    0.39961574356677    3.02677972905707
H           1.84300526815242   -0.07085942522579    2.27627882468666
H           0.98075016459181    1.13858542766856    2.59907108621209
O          -0.88956609694083   -0.75086401061130    3.26164939514987
H          -1.39918719634661   -0.15677521589897    3.81717419738490
H          -1.25537203700761   -0.44855986322936    1.75478083091828
H           0.04897127248986   -0.42512714675378    3.30838698763887
N           0.69306394675926   -1.20505279362096   -1.89997537380613
H          -0.35789039954687   -1.29399971233029   -1.94863782516637
H           1.17043295991768   -2.07949532136428   -2.08709664122624
H           0.97413476075000   -0.43947266174942   -2.55209576900128
H           0.89551147023369   -0.81520434865392   -0.90658629326784
