    23
        -45.37164876  Gyration_radius:  2.36914109145 Dipole_moment: 6.499
 S          -0.34382463029724    0.30172044159183   -0.88417174558078
O          -0.16069185027142   -1.14435829156699   -1.08642402887790
O           0.34269661633266    1.05993818671267   -1.92551720792244
O          -1.72062515506350    0.66957543802472   -0.67624594576101
O           0.45899911311521    0.64563444172342    0.42743811391686
O          -2.06868908919527   -1.87752527647839    0.63070638851219
H          -2.79373890916797   -1.32536760942343    0.32449086316155
H          -1.37202191861478   -1.77196329157681   -0.04537339237135
O          -2.72807474734375    1.64716416892666    1.58740441574762
H          -2.47106850675440    1.33122816489376    0.69622293450552
H          -2.60903816595055    2.59766221315598    1.57604892012399
O           3.12354974686121    0.16937327672730    0.33004182576732
H           2.17932566360057    0.34206306070832    0.52137103204345
H           3.59573985251847    0.96986802216437    0.56527987055455
O          -0.92295971064533   -0.19764403218302    2.34407841383326
H          -0.06969681317897    0.29633559224883    1.25771148806023
H          -1.62072106067774    0.48949234558556    2.35526608493286
H          -1.34655367289889   -0.97394998218113    1.90620208640808
N           2.16273802470258   -0.67062540766693   -2.01274810387643
H           1.56943723400385    0.21921058486882   -2.18955151151805
H           2.62837496272159   -1.05176910967482   -2.82847704295688
H           2.80545036980795   -0.46554416298626   -1.21834604632828
H           1.36139265638447   -1.26051874358532   -1.65540740236312
