    23
        -45.37283361  Gyration_radius:  2.32771204044 Dipole_moment: 5.581
 S           1.12973919584198   -0.14795618895525   -0.14995667464603
O           1.94397350770157   -1.18889473509716   -0.72821537091506
O           0.70405428273604    0.84085430454605   -1.17610004560703
O          -0.20600698615003   -0.87180511262064    0.25986390735042
O           1.67656316981158    0.50754025868261    1.01024965789621
O          -0.05907551923471    2.76280314655017    0.50940012535650
H           0.65766291918048    2.79835389460718    1.14909553011910
H           0.27351474187893    2.18787939236487   -0.20580140875721
O           0.21394697615399   -2.75771006255489   -1.80177813663626
H           0.99818184282015   -2.25221208647006   -1.44729270257238
H          -0.19006678391061   -3.14616186152087   -1.02159354059603
O           0.43700071851453    0.54514015625402    3.36298254919542
H           0.98864682058567    0.56356203284753    2.55231537652795
H           0.76053006124281   -0.18894897315437    3.88621042263890
O          -1.55091922117752    0.82801054483996    1.57012882331181
H          -0.78530454326283   -0.21856036616070    0.79635278643505
H          -1.08838959929057    0.74055458421443    2.42598404546822
H          -1.19448205186638    1.66560210673982    1.19054161492218
N          -0.97506885294222   -0.53278555723719   -2.46471317945756
H          -0.58093165375685   -1.51724638793107   -2.26602192239904
H          -1.88163146786660   -0.41460433692651   -2.02163152522936
H          -0.24410331980560    0.14138475822199   -1.96909147934312
H          -1.02783420720657   -0.34479951123295   -3.46092886304963
