    23
        -45.35702422  Gyration_radius:  2.62721960307 Dipole_moment: 4.469
 S          -0.42905387901099    1.18594869476243   -0.57287203933548
O          -0.56349309914678    1.34665906641392    0.95259395430777
O           0.96659853196278    1.23327759231631   -0.91284886264599
O          -1.13508199382379    0.00526187668746   -0.99160843069787
O          -1.13762059530769    2.42761555784744   -1.14280162890335
O           0.26383699927972   -4.23361483280381   -0.30659444815059
H           0.59329868452733   -3.41780642135114   -0.70874896065203
H           0.75937876174738   -4.95330647249412   -0.69885788449190
O           1.05056376014786   -1.54844534253563   -0.86406611354953
H           1.62701030993671   -0.78118415546661   -0.95112097588544
H           0.16967225344903   -1.19113299153763   -1.07176045557143
O           0.19847332892132   -2.26484465879571    1.68814441240222
H           0.69384009344218   -1.90128189535653    0.93423736974210
H          -0.00151070690934   -3.17095674741574    1.41729681506972
O          -1.90091829333812   -0.67644656332711    1.58074902757861
H          -1.16286856096845   -1.31654637271218    1.77135421282047
H          -1.15048185327051    0.57389089375254    1.33128479357287
H          -2.16358825591364   -0.84694670485703    0.66757969770809
N           0.72621572635297    4.02183003644846   -0.39548037564957
H           1.34621891750269    3.22197318354685   -0.49024450915338
H           1.10531184959067    4.80586895927344   -0.90984182535341
H          -0.51912987727694    3.21191502384296   -0.90975633178432
H           0.66332787810876    4.26827228375334    0.58336258862309
