    23
        -45.37599612  Gyration_radius:  2.3890566351 Dipole_moment: 4.449
 S           0.90290430838858   -0.02932466856394    0.22172856054354
O           0.09842502943056    0.67321733722172   -0.79904353645422
O           0.77702040145103   -1.46670485027618    0.07112780368421
O           2.25057153260106    0.46811983658137    0.29745835255068
O           0.18253592097540    0.28170911823633    1.59697747804635
O          -1.63682872777132   -1.72194920323398    1.44381705149287
H          -1.00710366830702   -2.43379744045076    1.28642952532478
H          -1.07685351726158   -0.97087950901381    1.70834526209609
O           1.67322480934328    2.89832893266052   -0.51025888520293
H           2.15268769773856    2.07273285202435   -0.28804016426767
H           0.92879701260302    2.57953508827054   -1.03346331840979
O          -0.21489063722367   -2.72355910543774   -2.01491548901341
H           0.26716858981354   -2.37970087068730   -1.22628502025920
H           0.39525582598897   -2.64634463639930   -2.74974105430333
O           0.71893870899157    2.78026943160950    1.93627066145725
H           0.33958595132493    1.25462374855060    1.77981357099366
H           1.49110275842145    2.83842476463230    2.50339162575676
H           1.03944425905904    3.00124842977348    1.02104891354352
N          -1.90001281501566   -0.89139213615133   -1.06712795662430
H          -1.11920726907594   -0.13864058724230   -1.00876273293083
H          -1.48778864591580   -1.66355748012139   -1.63631269520023
H          -2.00848957508841   -1.24822686624086   -0.07920263030543
H          -2.76648793046506   -0.53413218572839   -1.45325530249520
