    23
        -45.37167382  Gyration_radius:  2.49916919601 Dipole_moment: 3.427
 S           0.81796084231670    0.44663268657726    0.72121838239901
O          -0.50808400408435    1.00481680939636    0.46223833326271
O           0.76086171698164   -1.00906878252527    0.74968387960352
O           1.79817110181781    0.94560784209520   -0.23952097036554
O           1.26887061674194    0.90618727826459    2.14728758087014
O          -1.74031955042214   -1.09531382310135    1.77377919705038
H          -0.80263313150629   -1.30745726621705    1.62093565471368
H          -1.77228655896411   -0.13941380684422    1.64128482465430
O          -3.03663718546886   -2.19367183948210   -0.29158540719531
H          -3.17769994371082   -3.12797352612729   -0.13420480191948
H          -2.70461406221704   -1.81673444598339    0.55964414959765
O           1.01421366446820    0.19310395841970   -2.70201970404349
H           1.35501576992119    0.46920432248208   -1.82556885292886
H           1.52181857737730    0.68677803531795   -3.34735452888520
O           2.45186421257450    3.06749474471132    1.17804579421490
H           3.40179804295443    3.08402648080673    1.31556171908032
H           2.29045491815882    2.45359153360771    0.43289779484176
H           1.62784635113483    1.81427222852262    2.04688357328897
N          -0.93992964842569   -0.89795022664694   -1.26725257876197
H          -0.55586789652914   -0.71101595025132   -2.20031230099582
H          -1.82217159664098   -1.45460660053001   -1.20559777276210
H          -0.19942625134492   -1.33739448640669   -0.67911073706937
H          -1.04920599513032    0.01888484391473   -0.75693323864524
