    23
        -45.37167397  Gyration_radius:  2.49901920647 Dipole_moment: 3.434
 S           0.70287580527528    0.63156518552582   -0.70330778368061
O           2.13302579661935    0.99478843240936   -1.22416323202080
O           0.59803590557426    1.17631050230809    0.64415796275186
O          -0.26932218065385    1.22268999353818   -1.61882294285277
O           0.58613981030912   -0.82531526512149   -0.67579379434801
O           1.77564548644303   -0.95638165800709    1.81719674377293
H           1.54119841954275   -0.03384910282919    1.61316810265812
H           1.73469713972158   -1.38788859983422    0.95434239481498
O          -0.29156828510472   -1.89100687305448    3.23352836318242
H          -0.21271891131254   -1.62214169545948    4.14960591745395
H           0.56696370261998   -1.65873223548295    2.80238176415386
O          -2.73358458416428    0.57463121020729   -0.75084479210802
H          -1.85979332459586    0.85714259640037   -1.09312797281944
H          -3.36383303826174    0.77727726468226   -1.44340208485666
O           1.29554361330591    1.09003139145661   -3.73400086113371
H           1.37100836666581    1.95903346887147   -4.13490701926444
H           2.09523323829588    0.93995965722793   -2.20354215533627
H           0.50816090967187    1.12025347305783   -3.15325360095261
N          -1.28083864171089   -0.61349701172901    1.13212202121345
H          -0.78677334020431    0.29620650838344    1.25762297548263
H          -0.68174925263252   -1.03614706980426    0.37372755263977
H          -1.21211154075516   -1.18103538993173    2.00693076419361
H          -2.21623508464824   -0.43389478280670    0.75038168706573
