    23
        -45.37167401  Gyration_radius:  2.49923198452 Dipole_moment: 3.440
 S          -0.68516447364343   -0.94581364791220   -0.15484944560512
O          -1.48028520707748   -2.16023473766156    0.42959287159675
O           0.63697976180368   -0.92621204303787    0.46864146686850
O          -0.58523300707262   -1.13142917361840   -1.60010765803458
O          -1.43324561294287    0.25324253354792    0.19969734356451
O          -0.32062377751908    0.46616310403617    2.65555212088244
H          -0.98890446487608    0.47327843919147    1.94787536230392
H           0.27460815251180   -0.24483809322757    2.38564696052325
O           1.03449513077956    2.75071193944132    2.34149297749690
H           0.55487558522087    3.47745687795921    2.74083154569023
H           0.57254739136796    1.92473201490710    2.62631482708295
O           0.80968367085533    0.93448046132477   -2.61495385603271
H           1.05475076207818    0.72365681559211   -3.51674933770414
H           0.27659700295068    0.17557712544524   -2.29796714410575
O          -0.63339307788083   -3.76351292899543   -1.49997880895093
H          -1.18937321051127   -2.95195491445106   -0.07245583520640
H          -1.33544772081448   -4.09573869307977   -2.06414239789250
H          -0.46542277505146   -2.84093973210016   -1.78057155691050
N           0.81037055920740    1.62378595594887   -0.04754590942715
H          -0.22428532289532    1.49450121690957   -0.06100730309913
H           1.13091980903285    1.83863819345802   -0.99839627608450
H           1.07791628194995    2.28321752140301    0.71762543473869
H           1.10763453252091    0.64123176492187    0.19545460831269
