    23
        -45.36014784  Gyration_radius:  2.45588726484 Dipole_moment: 9.038
 S          -0.63415605653698    0.26161194566510   -0.76978692494112
O           0.05409642700198   -1.08270202680171   -0.36845748518069
O          -0.71944445678040    0.20799315368730   -2.23376013975600
O          -1.98050571798982    0.21305058239436   -0.17358694356506
O           0.16550650458009    1.35597339619964   -0.28203929198436
O           0.79492046741856    1.13050048737740    2.38241390539593
H           0.56841530237835    1.44917894260982    1.49329095735579
H           1.73591096556043    0.86516308024703    2.32653415710887
O           3.35762246532253    0.46631737370356    1.75405485654738
H           3.17462336773687    0.33747548735324    0.79838713162681
H           3.98759140650223    1.18638553745822    1.80911927379593
O           2.57131934343756    0.25891145178533   -0.82729331739911
H           2.21842512311495   -0.62373130209344   -0.96874524065416
H           1.78740284588102    0.82863521910759   -0.73484497526234
O          -0.71048048003678   -0.96548797080088    2.03428189336823
H          -0.11513877440717   -0.22996079268673    2.35808652902397
H          -1.52348566467085   -0.52572123799236    1.75923484428319
H          -0.15195353600909   -1.18673742606108    0.62786139816423
N          -2.97444796136558   -0.82648093313826   -2.23139019419992
H          -1.96882770759416   -0.44510467613616   -2.51954349483716
H          -3.04432389780695   -1.83711941985240   -2.28286328102996
H          -2.86177949647790   -0.46433817788293   -1.21828805388519
H          -3.73129047926152   -0.37381268414852   -2.73266560397224
