    23
        -45.36014789  Gyration_radius:  2.4558046356 Dipole_moment: 9.036
 S           0.96770609930142    0.29904489556306   -0.19594808792279
O           0.25223585646941   -1.08941598046643   -0.24409211973974
O          -0.01142991918049    1.33327433093415   -0.41194907450899
O           1.60838218260218    0.37096176896410    1.12873893529364
O           1.98276017645225    0.22608554924688   -1.25317192471129
O          -3.71273034459510    0.22321905206633   -0.85554782914017
H          -4.26455373267370    0.88995077324611   -1.26707199734622
H          -2.94874921004750    0.09280124780575   -1.45781296951204
O          -1.43408339908592    0.03428768191662   -2.30336542743525
H          -0.92611104393669    0.66752149915739   -1.76613023466918
H          -1.02959275757063   -0.81910993384145   -2.12533992336098
O          -2.20280602714750    1.10537940588549    1.22888288549511
H          -2.86924574183632    0.76339306842687    0.59809895267836
H          -1.47131298320387    1.42531566144197    0.67577983201505
O          -0.72680816367247   -0.86728640418597    2.07185672603341
H           0.04751705134034   -0.36791292483781    2.35662174744968
H          -1.42626906684320   -0.17685597057685    1.88652645316236
H          -0.23049243308210   -1.15849016390919    0.65487484484644
N           3.74759181386810   -0.62336458168732    0.26957833916279
H           3.88386124430522   -1.62585435088300    0.34228316799732
H           2.98838701071613   -0.25266884587940    0.94510806856017
H           4.62543220285472   -0.12074653130666    0.34505805543690
H           3.15031118496741   -0.32952924707347   -0.62297839978200
