    23
        -45.37167390  Gyration_radius:  2.49907433627 Dipole_moment: 3.430
 S           0.08858668060968    1.11696101448646    0.36348742158972
O          -0.42627779983810    0.66307670495059   -0.92720645270520
O           1.20725023246379    0.28469921336920    0.78673891903019
O           0.65124412996526    2.56550245311439    0.17997380562616
O          -0.97228623025573    1.17357749710818    1.36555704927766
O          -1.97286275932138   -1.30757893582682    1.66273998896968
H          -2.79464608816989   -1.24840186915710    2.15158937302115
H          -1.62680640844244   -0.39223702636940    1.60896927325053
O           2.08605939392238   -0.17009167320666   -1.72949376594246
H           2.09224927218778    0.02166864936618   -0.77511373733647
H           1.28059646471487    0.26618373371646   -2.03462160234061
O           1.63535952330759   -2.80113420729361   -1.89645138164564
H           2.45089966678662   -3.28490718735192   -1.76034021738516
H           1.88948463724492   -1.84998708641289   -1.98344849602180
O          -1.67892700878151    3.65082927698731    0.81411255523508
H          -0.11896742203086    3.17208551020310    0.22943406009781
H          -1.69567730495386    2.71491445172326    1.10033472668077
H          -1.65420036427317    4.17956094908998    1.61501136535314
N          -0.10015334124943   -1.80644001652904   -0.15705592998610
H           0.57372819111602   -1.31841408852168    0.47146317961788
H          -0.87392282961463   -2.17504434192560    0.40724171705456
H          -0.45089548848893   -0.98173703209555   -0.71362561160691
H           0.41016485309701   -2.47308598942409   -0.77929623983024
