    23
        -45.36601878  Gyration_radius:  2.38994695277 Dipole_moment: 5.894
 S           0.73643081441367   -0.29936281567898    0.06537808542277
O           0.69062490582208   -0.35529996771984    1.62171389530644
O           2.06924244811708    0.02222092982456   -0.36982485425962
O           0.25106652210391   -1.58017958046425   -0.43735735032605
O          -0.19836701775144    0.78544608574113   -0.33707844300996
O          -2.47067454447508    0.51950386785091    1.11095569558439
H          -2.19674857328220    1.03047929489838    1.89074642593218
H          -1.77114349089573    0.69357463610153    0.45544609219318
O           1.36813587387022   -1.32288657150878   -2.77783497939299
H           2.28555978862257   -1.46926381796489   -2.52973043369002
H           0.86108555028083   -1.55833391780282   -1.95942580429577
O          -0.84594229120814    1.43780955217529    3.17088543193442
H          -0.91849585435031    0.92637274685033    3.97928939861097
H          -0.13297233294665    1.03157858981066    2.65699261201402
O          -1.37780802569642   -1.80136280738934    1.71991330180030
H          -1.11909257552968   -2.15198934377891    0.85488320547210
H          -0.09915860460893   -0.98222274112994    1.81490823422723
H          -2.00183253400948   -1.05190569272224    1.53253372383142
N           0.97401423233767    1.25887011238288   -2.53306879974167
H           0.37751873614531    1.18164467353686   -1.61139551570417
H           1.14495847286417    0.22754434286846   -2.78667609086705
H           0.51051276300703    1.78427378038211   -3.26790022771057
H           1.86308571715952    1.67348863374196   -2.26335363333871
