    23
        -45.36014786  Gyration_radius:  2.45612330588 Dipole_moment: 9.040
 S           0.02036780343044   -0.97664495636572   -0.33066228051212
O           0.39369949911718   -1.76240885677288    0.85836948815194
O           0.25570017943428   -1.75345631620883   -1.55317288454870
O          -1.30579781214334   -0.41974447134106   -0.25183900974413
O           1.05379683740995    0.19313495220359   -0.40521703403081
O          -1.56523931327845    1.47840210245003    1.71706209213837
H          -1.58178044954673    2.29779267830496    1.18104015428915
H          -1.70516126326398    0.75718376880329    1.08170261861489
O          -1.61422921063641    3.45667676995222   -0.15053898141552
H          -2.48858093517916    3.77481928367084   -0.38019415396426
H          -1.33352284121261    2.87517256518842   -0.88975171738145
O          -0.90465658978436    1.60475255160320   -1.99230627839632
H          -1.22772738230423    0.83796961879824   -1.48699016021684
H           0.05247240692875    1.51813833402250   -1.98530386470866
O           0.90329527933588    0.72298719760821    2.05804052083341
H           0.75207897585716   -0.20901787238200    2.25438972083931
H           1.10406421946793    0.54968370755805    0.55206699905680
H          -0.00444007655746    1.14239490328729    2.07845980311536
N           1.89512468877968   -3.27069197913214   -0.47343745627886
H           2.88167811055459   -3.04388920390506   -0.53848478912443
H           1.73981793777105   -4.27279043127803   -0.49973698058333
H           1.40766679376599   -2.78876307781792    0.36349559090086
H           1.27137312206314   -2.71170126824969   -1.20699141703218
