    23
        -45.36014788  Gyration_radius:  2.45597615017 Dipole_moment: 9.038
 S          -0.90929181729585    0.20365658727626   -0.44201719194622
O          -0.72728279019412   -0.17364921873533   -1.85445524022325
O          -0.17107405989049    1.38266313585770   -0.06779068047234
O          -2.33701237957858    0.27945819098346   -0.11142257907396
O          -0.37867272831110   -1.00772651467359    0.39043489280659
O           2.66194537685829    0.95564393621134    2.56322228153132
H           2.92375386762917    1.77798355519237    2.97989371351774
H           1.68978217082883    0.88861284462111    2.68068781614375
O          -0.04242420910558    0.85189492027288    2.57609039487553
H          -0.15771865527643    1.24003464046880    1.69079127948093
H          -0.31271459004134   -0.06528297391752    2.47945620137175
O           2.55132159084112    1.02573223978471   -0.15465518872354
H           1.64734118419634    1.37875243930832   -0.19477279357533
H           2.75835953155542    0.96186955300983    0.80035749468573
O           1.70574666253654   -1.28538363656888   -1.00578611077831
H           2.21465027131283   -0.48082946233364   -0.69919662334421
H           0.51179563923527   -1.24924245023688   -0.05086101955364
H           1.22558780185161   -0.99321604693282   -1.78944142903311
N          -3.02193392908640   -1.18268557684310   -1.99512124370978
H          -3.12969941454212   -2.17652077081112   -1.82304661790668
H          -2.00622570511609   -0.90751853064331   -2.24563123620956
H          -3.70194529496435   -0.84422744638304   -2.66746631387795
H          -2.99428850343850   -0.58001943490373   -1.05926980598384
