    23
        -45.37182638  Gyration_radius:  2.3982877502 Dipole_moment: 5.923
 S           0.46187620019592    0.79256310841731    0.04623161228790
O           1.01679240507852   -0.22867411597179    0.97814064606500
O           1.26010887300081    0.90562060112876   -1.14728928767477
O          -0.95338610549496    0.23038594500655   -0.33642854788985
O           0.20500327805662    2.03155430284114    0.74085127096446
O           0.39034643584986    0.26337893213058   -3.57926243734844
H          -0.11365207163236    1.00577964935177   -3.91496077827923
H           0.80547798535916    0.57283109343729   -2.74693601671498
O          -1.14045574584064    2.01673976531301    2.94388797614749
H          -0.68893338661026    2.15268270509759    2.06584930067590
H          -0.56331306137147    2.42482866133855    3.59211957518878
O           1.94054946737287   -1.85725264365644   -0.93193536186383
H           2.39955715177271   -1.24686407266364   -1.51611101888753
H           1.72670420329698   -1.32818134970669   -0.14069109271059
O          -0.51874391513324   -1.66612811503129   -1.94390955315668
H           0.36193534618497   -1.96492828142128   -1.61647147494822
H          -0.82703722411793   -0.54713050432418   -1.00169978964886
H          -0.31589199877258   -1.14519820668848   -2.74740801378223
N          -1.11487948202561   -0.51450256063820    2.28397748202933
H          -0.11140312461575   -0.48456023843709    1.80739800885217
H          -1.76143974660780   -0.56590411750179    1.49487554393201
H          -1.23655912871232   -1.28741245225840    2.93012708911154
H          -1.22265635523607    0.44037189424847    2.73964487765168
