    23
        -45.37134420  Gyration_radius:  2.45713514555 Dipole_moment: 7.625
 S           0.06374337657004   -0.93287615405032   -0.40740726059715
O          -1.23805860683684   -1.23194652613431    0.19112402899248
O          -0.03137312602754   -0.08222074568126   -1.57763668290366
O           0.95533740289037   -0.34806897682218    0.61246933232751
O           0.68684090785278   -2.28894033188498   -0.83181267989975
O           3.39122706074585   -0.13673690114361   -0.44683154673589
H           3.93262458632690   -0.71332734745179    0.09523621057762
H           2.50785097995582   -0.11355501470015   -0.02199291229249
O          -2.08200537910743    2.42093742504064    1.31162868880068
H          -2.14503035466268    2.03151781377153    0.39898672999896
H          -2.93483123026490    2.82043830242883    1.48947052529215
O          -2.32598321832631    1.06152424263240   -0.93001485604862
H          -2.63082894684297    0.19489302240207   -0.63842093882619
H          -1.45826496728505    0.85548204386263   -1.33300395843621
O           2.19950001477535   -1.21743124239118   -2.60651142071184
H           1.33142422703552   -2.06030855879744   -1.56905175913978
H           1.47460765256882   -0.57998398439631   -2.69373460313872
H           2.83841382748632   -0.79055559078342   -1.99838863972346
N          -0.92185392641498    0.23632514904688    2.24916750931202
H          -0.95905358449235   -0.03654289264039    3.22471187753135
H          -1.33058947876512   -0.48318484963178    1.57730808175650
H          -1.37831566241706    1.16669075332226    2.05635542164843
H           0.05461842524597    0.22787041399665    1.84834885221754
