    23
        -45.37693827  Gyration_radius:  2.30877652747 Dipole_moment: 2.686
 S          -0.05436893673238   -0.23854949300361    1.25499653067290
O          -1.36167458853357   -0.79463041595624    0.94356188492231
O           0.15799002502564   -0.44156869031568    2.78886362860248
O           1.02844208674442   -0.93772991062519    0.56349410875169
O          -0.01049759572077    1.19557104577665    0.97778468097156
O           1.34162499846934    1.22911549076811   -1.33514829288173
H           0.94480425985402    1.35188714726474   -0.45081601304455
H           1.88942969275127    0.44477280840069   -1.24817424553822
O          -0.86183901919471    0.46576560698830   -2.63417460830194
H           0.00333599047962    0.86469984275979   -2.38488482940073
H          -0.74724345729992   -0.48892263352150   -2.42331686771932
O          -0.43207866256124   -1.90627122210792   -1.47192804376750
H          -1.19758915433280   -2.17462975523993   -0.95689907678846
H           0.22186381768261   -1.63804773129235   -0.79858617663958
O           2.78671888182182   -0.46536890887640    2.46226689273643
H           2.37243751876995   -0.66552669650740    1.59900971826967
H           1.11884045709820   -0.32530517799092    2.94021905238087
H           3.24560909864090   -1.26215974407149    2.73781989991305
N          -2.13820103183699    1.18608877434633   -0.52427678246758
H          -1.40645710573869    1.69821179904441    0.00490364005507
H          -1.71234104589639    0.94427309457363   -1.50963730612455
H          -2.16113876822330    0.28716679908880    0.02517311235755
H          -3.02766745123254    1.67115797050166   -0.56025093699152
