    23
        -45.37719480  Gyration_radius:  2.33972134674 Dipole_moment: 4.180
 S          -0.42188263161779   -1.06784105383799    0.04530733077238
O          -0.22109389372067   -0.73352668510967    1.45651115336150
O          -0.04829614061919   -2.55531593773611   -0.16095436590152
O          -1.81466877049468   -0.93323066158427   -0.35862483014129
O           0.45124049142899   -0.24841547604766   -0.79955567038378
O          -0.55150794898486    1.86632112607473    1.48320791217264
H           0.34853968340099    2.16593111600409    1.33368685583913
H          -0.48713741752002    0.88825087358443    1.60803941527264
O          -0.34145578760407    1.52351326290976   -2.55576798733058
H           0.07235243211838    0.86372518461518   -1.94650027588359
H          -0.46223452468031    1.06526388431286   -3.38899365045935
O           2.32334968002800   -0.11220837741508    1.10696710775986
H           2.03514502043847    0.05827141397760    0.19662769341187
H           1.47619276359000   -0.27468323798500    1.56350523342108
O           2.38130548346999   -2.74196720349363    0.77237176536969
H           2.58056113848592   -1.78243807781371    0.90489282392434
H           2.33802435831896   -3.13368491906270    1.64734427782923
H           0.89419428104497   -2.68255214027914    0.13586185475154
N          -2.14417638776178    1.59894314541745   -0.61632049349723
H          -2.16521155304691    0.52577869538068   -0.52434984572334
H          -1.58084962301397    1.78715498174838   -1.48112295078778
H          -3.07142876772401    2.00757438918760   -0.64566367310408
H          -1.59096187553697    1.91513568715610    0.22353031932823
