    23
        -45.36033884  Gyration_radius:  2.4881158474 Dipole_moment: 6.379
 S          -0.14488410222278    0.56736552914891   -0.95506395363100
O          -1.56687566133020    0.58799266903446   -1.17510941571325
O           0.05038559376063    0.69485110551080    0.57790488979229
O           0.57113685759438   -0.56420455578588   -1.44420878246730
O           0.47760094262843    1.85618847308946   -1.52225736132304
O           2.10118469456717   -2.60859767919955    1.35947736330212
H           2.80318013055036   -3.05830675823513    0.88591962018103
H           1.27315958149482   -2.79288768332696    0.83632502135308
O           0.02283326793830   -2.92361951084693   -0.20482427562163
H           0.26961944374350   -2.23103958834466   -0.83981981261710
H          -0.81407844676913   -2.61088973009231    0.18300149699864
O          -2.02574393633350   -1.33746819326670    0.70399314898271
H          -2.06744538963074   -0.72539690600539   -0.04774910159280
H          -1.63693677538129   -0.83431940816380    1.42328179185265
O           2.34076654422825   -0.01897673603021    1.36176236837915
H           2.42298712830208    0.20663348379276    2.29130568400483
H           2.28694915243748   -1.02028880853586    1.32804992950868
H           1.00595475204728    0.43321567008408    0.85143601291832
N          -1.53979725695179    3.38960055252809   -1.10139893941285
H          -2.09318659676659    2.53649445130081   -1.08386304242573
H          -1.88947129963277    3.99862138054771   -1.82904638508372
H          -1.62618621757018    3.86040892643346   -0.21073909095557
H          -0.22115239670719    2.59462332637582   -1.38837715642070
