    23
        -45.37997266  Gyration_radius:  2.33317193309 Dipole_moment: 3.120
 S          -0.69389602986010    0.59804345462149    0.24040480796544
O          -0.17908093403148   -0.57477960400604    0.96542772348648
O          -0.22539789935385    1.85281565176164    1.07894581078786
O          -0.03138743311155    0.74564345455235   -1.04320358746699
O          -2.13572349743811    0.60315504139538    0.17304526449734
O          -1.53970257993726   -2.04159984374868   -0.83899323213161
H          -2.26878417831618   -1.43697245672803   -1.00177226405305
H          -1.12068746437830   -1.69751098994577   -0.03339627666998
O           2.40672178603429    1.39770570970306   -0.27842548059291
H           1.51848947936706    1.32747171630011   -0.69093947805087
H           2.26660958080004    1.92585226492409    0.51055017880933
O           0.65336810081868   -1.52830430326965   -2.34995232043669
H           0.42375712628606   -0.58630748120035   -2.27491838174912
H          -0.14253419324582   -1.97772492974612   -2.00146405669736
O          -2.45414478965208    1.78230842250494    2.49005670519098
H          -3.05713946944688    2.52505689869593    2.41026458049221
H          -2.60024459083246    1.22324976432117    1.69829816539369
H          -0.89670873929953    1.95094777142158    1.78718163467981
N           2.05591569674221   -1.24588561628610   -0.15872341424160
H           1.18951917321295   -1.08010160735981    0.44024664840211
H           2.51106020733760   -0.30703666529828   -0.21849605193557
H           2.66609592385034   -1.96275677004535    0.21690536277655
H           1.65389473445377   -1.49326985256626   -1.12104234845506
