    23
        -45.36345569  Gyration_radius:  2.38558002698 Dipole_moment: 5.196
 S          -0.45809765539684    0.23734440331051    0.87672653371464
O          -0.57523293393934    1.15210413829737    2.09283509210227
O           0.21534837942198   -0.97560885758020    1.25564514077932
O          -1.93093443623509   -0.06055300801632    0.54006368959965
O           0.14121915082178    0.94810680507200   -0.22137635328544
O           0.32277180239455   -2.39786584344206   -1.10154843466968
H           0.32575747988760   -2.15870428585703   -0.16253854852203
H           1.00723717119472   -1.80777605974117   -1.50266919972677
O           2.05648981467825   -0.46097465296613   -1.64224644075356
H           2.64120007555518   -0.59554504709834   -0.87699130608455
H           1.42179733180176    0.20740305574863   -1.34368237099733
O           2.93544224021921   -0.98344174010800    0.93038459715346
H           1.99439234241435   -0.93811779306456    1.16998930643290
H           3.22826311779780   -1.86858284705569    1.15619933684012
O          -1.99682170041100   -1.39221425578930   -1.60075284247424
H          -2.63320816832051   -2.10837096490117   -1.53814441650962
H          -2.00483755964691   -0.56631967106422   -0.35591415184175
H          -1.08572144518307   -1.82078771976957   -1.54498025377226
N          -1.16534692644760    3.23009942294031    0.74810476606276
H          -0.75269871098849    4.13268236508815    0.94225480760823
H          -2.14272960759587    3.35361453565480    0.52055990712905
H          -0.68880735653991    2.80075512325920   -0.04094265683351
H          -0.85548239548821    2.07275290705904    1.69902379802922
