    23
        -45.36345584  Gyration_radius:  2.38528846379 Dipole_moment: 5.195
 S           0.46664049230135   -0.69256793294984   -0.58041830155771
O           0.46072088874684   -2.06168428575682   -1.25515144618935
O           1.92016020685818   -0.57038152691214   -0.08688685787950
O           0.19242605865339    0.32318795061026   -1.56091758192182
O          -0.41712297280720   -0.69643792250961    0.55493902308294
O          -2.01909206165412    1.54764477867812    0.81994476793833
H          -2.45998758147053    1.43354286411354   -0.03923039082353
H          -1.56168775689964    0.70642693056351    0.96767635520295
O           0.22326440305111    2.64714169766421   -0.08081504839204
H           0.25610358235339    2.01575468655432   -0.81508215994244
H          -0.63491316695445    2.44962851634882    0.36888155063166
O          -2.44220916683555    1.00919291482925   -1.86245556887031
H          -2.45930407198454    1.73152585940128   -2.49348096389623
H          -1.52853032854730    0.67740038505454   -1.85253819746929
O           2.11459522113821    1.54222161578606    1.27648001288527
H           1.36546431023641    2.06871548016647    0.85378396347151
H           2.03205474632380    0.25994850167388    0.51511746620859
H           2.92432318745301    2.01244734543694    1.06424105130177
N           0.32290600333923   -3.37526419015665    0.91983205032340
H          -0.29422680639555   -4.16845513673145    1.03224000812848
H           0.43908764948539   -2.73892689350707   -0.46663965588318
H          -0.10171619735267   -2.55163732610788    1.33858679419342
H           1.20104334096863   -3.56942431226889    1.38189311946766
