    23
        -45.37469118  Gyration_radius:  2.27759632671 Dipole_moment: 5.709
 S           0.34729739446629    0.50701921768915    1.31689802283261
O          -0.55619995995647    1.07211803434702    0.28211510168767
O           1.62893451628008    1.37849933448707    1.28209798276996
O          -0.25077521077670    0.56152480876258    2.62258099341769
O           0.72527094717508   -0.85450483675155    0.93974620053096
O           0.64008056754020   -1.62199098398565   -1.48526509365214
H           1.19374945006830   -2.39423778365880   -1.61020728358446
H           0.76419190119383   -1.34375324385297   -0.53306873671024
O          -1.65669288427822   -1.64426900352097    2.12993085121701
H          -0.94291328438877   -2.27478466664978    2.26057869568618
H          -1.27151088060382   -0.79067664737302    2.43485666608232
O           0.30149257409249    2.76777151202552   -1.58130012852501
H          -0.13195549868287    2.21344315935119   -0.89939707779169
H           0.49814878854146    3.60430316136811   -1.15622066077217
O           2.19553370627430    0.89059019357200   -1.21913322505621
H           1.75485369349147    0.07484428234270   -1.49295168802068
H           1.63887745062729    1.61817746049199   -1.56773857354962
H           1.99727266462152    1.20534793998057    0.37036300504949
N          -1.81109710097376   -1.02033511653594   -0.44706547616532
H          -2.71754542988757   -0.97317715235854   -0.89925069126384
H          -1.09797878917069   -1.49459847741051   -1.02894184735722
H          -1.39233242480546   -0.04219349255651   -0.24466767968652
H          -1.85670220084442   -1.43911770976252    0.52604067286868
