    23
        -45.37620767  Gyration_radius:  2.35385831365 Dipole_moment: 2.435
 S          -0.62424011834691   -0.81797380358420    0.91411196511018
O          -1.26947852070718   -1.83489963090001    1.90811718205882
O          -1.20583847056403    0.48982065261217    1.12982099074433
O           0.82273092881433   -0.81379068677856    1.17352252562322
O          -0.91551329911196   -1.31386539921976   -0.42638213046795
O          -0.40015634288156    2.39571226220757   -0.48027246217063
H           0.53535636769143    2.13586426046037   -0.52267280233674
H          -0.75948350374953    1.86843596264300    0.27046720659437
O           0.89916772680338   -0.68183118335274   -2.56312693984159
H           1.45418948831885   -0.12100978084411   -1.99357436192019
H           0.49300207427668   -1.31651911034548   -1.95586198817439
O           1.89341531866697    0.85450948739286   -0.50521597429267
H           1.50504587413184    0.21867989515557    0.15057764649335
H           2.79289551973217    1.01609913879125   -0.21530654560735
O           0.43625008293907   -1.00630860986580    3.76073239168659
H           0.99586289162394   -1.69266285728934    4.13103850766979
H           0.79976444223602   -0.79697674788963    2.87616146081049
H          -0.88914093875901   -1.57454937872173    2.76889074329259
N          -1.34896994781225    0.61755202256744   -2.11861362235935
H          -1.45867344757531   -0.14778185520495   -1.39522013411412
H          -1.05189803437308    1.49046928222793   -1.56234996539488
H          -0.52227502208916    0.27574906458893   -2.66634916910250
H          -2.18201306925585    0.75527702533440   -2.67849452429463
