    23
        -45.37093077  Gyration_radius:  2.33564786692 Dipole_moment: 6.811
 S           1.17625878624246    0.21908892820200    0.10940464412996
O           0.60509481355998   -1.05105391404699   -0.36530365606324
O           0.10535299086615    1.21787131710213    0.22624389414685
O           1.80559533566399    0.00507639561011    1.48797138450221
O           2.22550925693322    0.67771666875134   -0.79194607702137
O          -1.88173547343233    0.63246903436777    1.84527118078962
H          -1.16516814798264    0.87184903828088    1.21346029744974
H          -2.37749412994087    1.43702964563635    2.00168016747753
O          -0.68945802780182    1.70732481465710   -2.22612092868618
H          -0.47455661148041    2.62761140465902   -2.38957771548499
H          -0.47726221267201    1.55224808441979   -1.27148892522414
O          -1.30010766641214   -2.18578115532755    1.15263089847095
H          -0.61832438444227   -1.89089164279374    0.51916735832519
H          -1.94216758839423   -1.46829627608463    1.19391144921291
O           0.02691519836108   -0.90034779832796    3.06350320024825
H          -0.35602396474440   -1.64345359201101    2.54318266539556
H           1.12832883662165   -0.37423499783473    2.15901517182428
H          -0.66066856836528   -0.21545787119502    3.00423465029564
N           0.97604332022891   -0.26422614545778   -2.76662676412970
H           0.23735603738913    0.47760866174687   -2.86332946815102
H           1.75249022968043    0.19672272625008   -2.18147456303178
H           0.63985274767611   -0.93244563990952   -2.02646546478741
H           1.26416923236531   -0.69642769673321   -3.63734339967199
