    23
        -45.37199748  Gyration_radius:  2.24498884335 Dipole_moment: 3.559
 S          -1.05961326403719    0.02880948070055    0.84127443111222
O          -0.05711367669862    1.08393901563512    0.99165547198632
O          -0.48209096037859   -0.93301370023454   -0.29177899609232
O          -1.10303034808224   -0.80619684660127    2.03336437256703
O          -2.33166032321587    0.51683344066719    0.36458994223679
O           1.71538386422445    0.95887416112371   -0.98291641855344
H           1.07751449348296    1.11402905345047   -0.25397696650093
H           1.17824019138846    1.01414986080390   -1.77868028075252
O           2.22832937945094   -1.49962904951983   -0.09830758267022
H           2.24526255418472   -0.60484583563765   -0.51917842797169
H           1.38704350988920   -1.87091305163995   -0.39038794932810
O          -1.06796975336531    1.79903422561578   -1.65711789849537
H          -0.74579949557583    2.67491258938777   -1.43661237409732
H          -1.53740684411045    1.48468585960458   -0.86385822098732
O          -2.36432171088001   -0.66440821963755   -2.08189440514792
H          -2.88980599766242   -0.33311700307067   -1.33793350604081
H          -2.02741847082905    0.12538885543909   -2.52346270710477
H          -1.13692823745376   -0.96203348035132   -1.03775055626065
N           1.43327052201270   -0.64341859761007    2.24197858813001
H           1.87097767977516   -1.10155209273884    1.37180130212395
H           1.96544432213412   -0.79267264382419    3.09270063686422
H           1.30036197157964    0.35462541919553    2.00560383990454
H           0.40133059415617   -0.94348143075108    2.31088770506226
