    23
        -45.37412497  Gyration_radius:  2.34056461405 Dipole_moment: 4.890
 S          -1.07998132319581   -0.04775147632772   -0.76387381352689
O          -2.47384992264605   -0.00196233828422   -1.46695834766177
O          -0.85151060566409   -1.41816166315939   -0.31668163185943
O          -0.06656162297147    0.41669563807591   -1.68425574798015
O          -1.19429149606437    0.86677929182060    0.38222113328018
O           0.04340323490727    0.27219074957609    2.66738408388753
H          -0.54717933613711    0.39895237917582    1.89370892927995
H          -0.45434839514081   -0.24717766058018    3.30020159417187
O           2.35784219053099    0.64785751770720   -0.72100772878246
H           2.31082925567720   -0.16363137796662   -0.15622500706810
H           1.59241707636879    0.53936366690253   -1.33091530398491
O           1.54484676139601   -1.27047203833067    0.89147368238438
H           0.72772311319156   -1.49521212540287    0.40699067575194
H           1.23480392892603   -0.82368015986654    1.69454555310422
O          -1.91440789487364   -2.36198866263227   -2.51904567783949
H          -2.49656795307727   -3.10359900456246   -2.33847269880036
H          -2.43479252339320   -0.76424613690602   -2.07730435061262
H          -1.35154865032380   -2.25071597861764   -1.72597883697918
N           1.01995543199508    2.20182244288718    0.78932920875913
H           1.16725446029000    1.96709862421140    1.77082033181045
H           1.72342896851241    1.61626535804724    0.14386607238618
H           0.06353318218445    1.82009088784548    0.52931679696009
H           1.07900211967806    3.20148208631897    0.63086109345131
