    23
        -45.36866949  Gyration_radius:  2.2787558872 Dipole_moment: 3.034
 S           0.18261007443443    0.03066609270072   -0.83768147527812
O           0.58565387894985   -0.42638726520418    0.51624078343291
O          -0.39889605487128   -1.07040370971265   -1.58359502877176
O          -0.69963876360861    1.17501997185231   -0.74037104457682
O           1.49259318007223    0.49871164509129   -1.52724155958060
O          -2.72252337443041   -0.82649454611169   -0.36498953202107
H          -3.01592720244171    0.01598142568810   -0.72386197996278
H          -1.92839852067915   -1.06386385926938   -0.89917930641379
O           1.35128682994055    1.91325394293204    1.58269908006392
H           1.22205623361399    1.00450299458957    1.24873473154905
H           1.73102000447628    2.40673427508593    0.85344162679978
O          -1.31733831770113    2.10502718625212    1.63333769977892
H          -1.22951998032895    2.00025322859560    0.65828341566440
H          -0.38850272372604    2.25177763119257    1.91601365318955
O          -1.52778525787439   -0.36221991509020    1.84294428427348
H          -2.15471407268125   -0.61038731297498    1.06936773347650
H          -0.59231852514742   -0.51569480314007    1.41616399838529
H          -1.54238761195587    0.71923760085948    1.90266354704458
N           2.28904801474537   -1.96507094284873   -1.61147533842467
H           1.29501820016362   -2.14931043161615   -1.72311014527639
H           2.55979460599782   -2.26662637624434   -0.68445076820350
H           2.80559822659210   -2.50533969962241   -2.29342666861949
H           2.00327116645028   -0.35936713301132   -1.65050770652644
