    23
        -45.36325444  Gyration_radius:  2.36119243671 Dipole_moment: 9.417
 S          -0.54264597177286   -0.59318246665256   -1.25396638253508
O          -0.07955878484116   -1.79744915127998   -2.08419773825441
O          -0.89886758606271   -1.03659074091671    0.09044627707195
O           0.52153785028484    0.41089884825373   -1.19621445426472
O          -1.72302636073204   -0.02778532572280   -1.94024676048969
O          -0.38454498536242    1.33663213204774    1.03698673576119
H           0.15306179649722    1.26153602520531    0.21110667824288
H          -0.66374804443108    0.40151559950218    1.13158104023697
O           2.02011992436225    0.71291622592002    2.35620030085954
H           1.15270038838993    1.04972060187722    2.08015170026683
H           2.61317983367706    1.46485743395777    2.39733257798292
O           2.53043351390045   -0.86643345867869    0.11283784134273
H           2.46418134777229   -0.44946928273490    0.98924260913336
H           1.95138396602397   -0.34569081159202   -0.47123083463435
O           0.99275585646411   -3.00398012016095   -0.12598043976855
H           0.26939469761204   -2.65870100212813    0.41496458546386
H           0.39782862142635   -2.41416490004289   -1.42725889242983
H           1.74041636488836   -2.37034878586072    0.01142257720920
N          -2.53205283417468    1.82212702469998   -0.45120998606029
H          -3.42443431635127    1.59422159999518   -0.02522889887019
H          -2.58002618970595    2.71180198216463   -0.93689379600281
H          -1.75241253222922    1.81203087353710    0.26477867693101
H          -2.22567658561299    0.98553768860904   -1.18462340720201
