    23
        -45.37432797  Gyration_radius:  2.32618509067 Dipole_moment: 1.834
 S           0.66151744814487   -0.97595387010945   -0.00091403831269
O          -0.47107397299333   -1.27418658144921    0.88169288542460
O           0.18391856615332   -0.41738721466754   -1.26776013432887
O           1.63110684836799   -0.10626781464908    0.62691551837310
O           1.38075883229798   -2.32452990374152   -0.31635665187980
O          -2.44433768259195    0.26938389513357   -0.77845846742084
H          -1.66013035592610   -0.18038844222914   -1.12497034473510
H          -2.63223733972949   -0.15823605529332    0.05928686753738
O          -0.57466748231930    1.16581880318249    1.89913229303333
H          -0.65169483073896    0.22299874851538    1.63702851317321
H           0.31194166315287    1.24051391131525    2.26370260330458
O           2.39142998156815    2.30035705650356   -0.19864844544639
H           3.11538253270135    2.19637996110156   -0.81787046655054
H           2.22954919245871    1.40508707110420    0.17581082180212
O          -0.95237953249026   -3.56811241664805   -0.29181479285213
H          -1.04402546846029   -2.73771197004509    0.21880537170245
H           0.65574037220295   -2.95326046372011   -0.51376607368978
H          -1.05879619334999   -4.28822270148147    0.33369266052494
N          -0.22749955614338    2.07580382918537   -0.57433260636975
H          -0.94004184896772    2.60835503582417   -1.06318501907529
H           0.71770630600412    2.51210886285178   -0.55977290976254
H          -0.51457508624157    1.87079886908503    0.42467669443551
H          -0.10759239309950    1.11665138027028   -1.01289427887976
