    23
        -45.37167407  Gyration_radius:  2.49800508978 Dipole_moment: 3.451
 S           0.61836614098888   -0.00125543411955    1.00260332153109
O           1.99412787345327    0.03171314523504    1.74747696242473
O           0.50342247780301   -1.32141319308619    0.39674607451973
O          -0.42916295045449    0.25186991239844    1.98805195638722
O           0.63582017973417    1.03477648509548   -0.02864880599865
O           1.90979996564823   -0.64252879755683   -1.81316411566475
H           1.59107338866862   -1.16533642054671   -1.05684228609122
H           1.87005051848197    0.26423723069147   -1.48268555817650
O          -0.01664346278512   -0.86082522392109   -3.65628704119679
H           0.80284455608812   -0.76557210652807   -3.11227648862304
H           0.06926908936001   -1.69032108105004   -4.12769824253613
O          -2.79608276165927    0.21973038691821    0.70639440165785
H          -1.96224866657428    0.21875417695200    1.22133967969031
H          -3.46886706448966    0.55886854638234    1.29818873679951
O           1.08130828347578    1.75294880617464    3.54063547664256
H           1.06603216068149    1.40919171882196    4.43683332657629
H           1.93602589763394    0.75611626851781    2.40722273185783
H           0.31118340957162    1.36161170986189    3.08050731039301
N          -1.18569025762709   -0.28555130971904   -1.34744459767760
H          -0.57644026686477    0.51850612193781   -1.03975766792261
H          -2.14542548612967   -0.11175349007620   -1.02902658371335
H          -1.03763888095311   -0.48502215429920   -2.36239508092056
H          -0.77112414404198   -1.04874530809737   -0.76977349995625
