    23
        -45.37167411  Gyration_radius:  2.49810279001 Dipole_moment: 3.452
 S          -0.88957393866921   -0.65894163154342    0.40308838313523
O          -1.32816167382069    0.60013489652974   -0.18468517471541
O           0.31670395049894   -1.14285918810765   -0.26617320029445
O          -0.68915439097257   -0.55912599032695    1.84615957797536
O          -2.03458846726471   -1.69496679324629    0.14955088510449
O           1.46191480609247    1.79124159079047   -2.96025313972082
H           0.77269526517867    1.08581170456815   -3.02357678614534
H           1.14856856953145    2.52130418421954   -3.49546416016530
O          -0.46932996100246   -0.03675108076333   -2.67037092395805
H          -0.05599096740927   -0.80821186497542   -2.26169379805605
H          -1.03573751851914    0.31055727856186   -1.95935838289913
O           1.29728938417996    1.20278064229763    2.28849432481800
H           1.56119940361837    1.14152634297491    3.20748713750610
H           0.55478763192369    0.57230232733336    2.18053578161620
O          -1.42410034263034   -3.03981883648869    2.34734517207253
H          -0.99457640431187   -2.16204615645400    2.40288166606264
H          -2.12154721707721   -3.04343301321807    3.00696046708048
H          -1.90571961484213   -2.41722343150718    0.80161696894213
N           1.20913627644423    1.30555875137610   -0.36641340427664
H           1.55564888027771    1.68607305231481   -1.27588412526905
H           0.18384118986982    1.47502859940566   -0.27647111142138
H           1.21205742604516    0.25108674130998   -0.38597818023357
H           1.67463771285666    1.61997186495827    0.49220202283739
