    23
        -45.36165880  Gyration_radius:  2.32666725108 Dipole_moment: 9.800
 S          -0.30471974342612   -0.39480973155580   -0.75973464673948
O           0.06503775120826   -0.61313476900455    0.74757131567716
O          -0.74818172302941    0.95489232900579   -0.95394887828128
O           0.91807616567655   -0.75116539732057   -1.47403042025556
O          -1.36832010180000   -1.39403297411342   -1.02886626282998
O           1.50232312324688    1.76731057963240    1.58665894859946
H           1.85566873440152    1.89914139347541    0.68565454132013
H           1.27939817941247    0.83190607853029    1.63318093757876
O          -1.05897278099239    2.57265824506553    1.23543564726862
H          -0.12849384675390    2.49238284031808    1.53569507390687
H          -1.03993604759668    2.26802826776982    0.31432456251592
O           1.98286143868625    1.74139557876614   -1.10654565661696
H           1.77161161951003    0.81498200128439   -1.30203710646404
H           1.21678009949857    2.23655996471724   -1.40941182092266
O          -2.03609249769269    0.25490958511729    1.86896764536892
H          -1.76458105762102    1.21934030582863    1.79243636764404
H          -2.73059467600770    0.12387188534413    1.21922839534428
H          -0.75567076656935   -0.33309936855600    1.28719645145551
N           0.29014153356114   -3.21254605603832   -1.17388402344802
H          -0.65003163504599   -2.53790425337536   -1.09180345061272
H           0.25735768884763   -3.87545231353251   -1.94082401285299
H           0.92800103630833   -2.39754869909224   -1.36876241298937
H           0.51833750617091   -3.66768547226481   -0.29650119466385
