    23
        -45.37376531  Gyration_radius:  2.33222397637 Dipole_moment: 1.660
 S          -0.40287063342227    1.06539544848237    0.07487635368773
O           0.62655912147477    1.01045410835771    1.10622937266380
O           0.14535362446359    0.77112439204124   -1.23653304537451
O          -1.52552768259306    0.17528317560972    0.39017508827263
O          -0.94933900515561    2.52768740709412    0.07926159505988
O          -0.39950881804139   -1.95511353280459   -0.69750528714294
H          -0.26863712849540   -1.61965921081636   -1.58964857398289
H          -0.94438157238315   -1.26702179120120   -0.25766213166897
O          -0.08128655012592   -1.20766881397047    2.58428280611279
H           0.07443905287718   -0.29037260828369    2.31791008378324
H          -0.96786755196741   -1.40781764189061    2.27687545606408
O           2.62575313196152    0.02591248638936   -1.76184608635882
H           1.69510458207504    0.34309618759879   -1.68927544708186
H           3.16100133632415    0.81339818846275   -1.86894922675726
O          -3.28824540760689    1.69248683507279   -0.82757204345280
H          -1.81268918725629    2.47755936878281   -0.38188196863665
H          -2.83004201686989    0.92326852597741   -0.43212052808134
H          -4.04910495507077    1.87421899106112   -0.27126504672311
N           1.87247144704249   -1.21593833143627    0.45131641067002
H           2.47352416579151   -0.93722783799989   -0.35429890575380
H           1.01779691979996   -1.71303270465295    0.06558441894590
H           2.33665213861344   -1.76859967087704    1.16485872830830
H           1.49084497855583   -0.31743296100170    0.85718798744728
