    23
        -45.36165889  Gyration_radius:  2.32619337702 Dipole_moment: 9.816
 S          -0.29344990896072   -0.28629718098578    0.81055097745630
O           0.01936272483555    0.11876875856797    2.20275462450342
O           0.08796082745341    0.96282916250819   -0.05587831966704
O           0.46724666694923   -1.42179673557175    0.37686912081787
O          -1.73791186320467   -0.40739448764468    0.62974461378586
O           2.42426591541751   -1.05914570671886   -1.50571652454089
H           1.83152245428243   -1.48869196747677   -0.86874424614112
H           1.82170224878273   -0.69421548371896   -2.18841895131591
O           0.30352220278877    0.02417983932303   -2.79536830301001
H          -0.37232691336989   -0.66266973204576   -2.63585440955509
H           0.14277680443006    0.69370340236484   -2.12252367719079
O          -1.43073911163449   -1.79273356370303   -1.70964947416391
H          -1.71719003033118   -1.29933919866132   -0.92511190425652
H          -0.79831102945693   -2.43553346865498   -1.37697334057834
O           2.61270310116789    0.91601735908638    0.16539638846049
H           1.10237515047721    1.05823947879759    0.01355765808956
H           2.77320737176739    0.47936733926627    1.00515722866736
H           2.73319978293963    0.21105154008337   -0.54037146266262
N          -2.03851090011191    1.47161212759006    2.33505021970740
H          -1.95370200536428    2.43152567499496    2.01799489905260
H          -2.31726811099505    0.82370970766550    1.55138298176310
H          -1.01037690761583    0.95977966853568    2.47530813567195
H          -2.65005845024734    1.39703345639941    3.14084375510716
