    23
        -45.37876348  Gyration_radius:  2.39253469674 Dipole_moment: 5.189
 S          -0.35040503949280    0.80656975570015    0.28679237229488
O          -1.69050962696548    0.34294623721907   -0.00696308001826
O           0.35997886429335    1.17800873789249   -0.93873726503145
O          -0.45383783347827    2.05801835652714    1.18850937590600
O           0.42033947931988   -0.21025879788749    1.02520603271738
O          -2.74198027839040   -1.96231218962294    0.67368528932015
H          -3.63511702566705   -1.99816478616001    0.32803056705675
H          -2.43938316237378   -1.03105057267626    0.55078386086236
O           2.77380192415130    2.13628417419301   -0.43578729752021
H           2.80740353613354    3.00512080598057   -0.83963711764926
H           1.91783382236106    1.74212740356305   -0.71414582357794
O          -0.52254750864179   -0.80109310727030   -2.40832037422541
H          -1.44983721055999   -0.55415853999035   -2.45834837721380
H          -0.09162694087030   -0.01915616137094   -1.98731738937537
O           1.93263652211796    1.77863263990138    2.08481856255110
H           0.44395607614277    2.11930016206227    1.63558221414397
H           1.72984522439780    0.83461628627295    2.01376599884868
H           2.44651033282928    1.98911852973072    1.27546826659814
N          -0.27883768187609   -2.32826804384197   -0.26052903501090
H          -0.33892649613524   -1.88867136877387   -1.22306176265086
H           0.29755594609459   -3.16208758931962   -0.23849464489455
H           0.11189916010926   -1.54171760224154    0.36010509907872
H          -1.24875208350300   -2.49380432989256    0.08859452779290
