    23
        -45.37283367  Gyration_radius:  2.32789587821 Dipole_moment: 5.580
 S           0.09924401232759    0.72497997519164    0.88560072310277
O           0.09878421624903   -0.17262792549898    2.01212261615136
O          -1.27458520907767    0.91590871122988    0.34874868432673
O           0.76565025447386    1.98845274307502    1.08695907752860
O           0.88199360145036    0.04917629797559   -0.30028211386477
O          -2.18292902884740   -1.53604332719730    0.87655958544048
H          -1.88346867476697   -1.69840009857709    1.77552272425820
H          -2.00793185904667   -0.58813300971187    0.72292391311756
O           1.14263312499495   -2.61658201831278    1.91159905194290
H           2.04918420636355   -2.57049737891728    2.21727970347099
H           0.76002299432379   -1.72632519650554    2.06321591402898
O           1.56701353590870    2.61166347301918   -1.27438914733228
H           2.26660371074001    1.96677755808105   -1.40692560686306
H           1.32112737311736    2.51425368122844   -0.31193356714696
O          -0.03071036080961   -2.30534185084137   -0.49068783300676
H           0.54464767918332   -0.91198423244363   -0.41459754686612
H           0.47085154557932   -2.70866842799812    0.24414815579414
H          -0.93484394043507   -2.17475748729245   -0.11886206482390
N          -0.74605750988675    1.65308587832608   -2.00580652141184
H          -1.07402919407193    1.35220829684142   -0.98768217927180
H          -0.67136082749236    0.82145296092695   -2.58450167646362
H          -1.38915333848995    2.32503217489767   -2.41260487530661
H           0.22731369821886    2.08636918245878   -1.83640702681487
