    23
        -45.37202091  Gyration_radius:  2.35684007868 Dipole_moment: 5.568
 S           0.74989645900352    0.36836594021261    0.69761309283992
O           2.03114252179678    1.02456701413843    0.48363368194150
O           0.52848620391097   -0.47579821753654   -0.61629719515154
O           0.69481826946804   -0.53143756821468    1.82049296085767
O          -0.34742667893057    1.35468920119780    0.70663722145117
O           0.38517675188780    0.86943951529759   -2.95980600891754
H          -0.45849167062158    0.62942377988551   -3.34780251757432
H           0.53671148998880    0.23759133178628   -2.22894412415795
O           0.16476042560598   -3.13567440660700    1.60498994319510
H           0.40389323626400   -2.20660538365753    1.80486078805720
H           0.99057504633072   -3.58964605144177    1.43201709890557
O          -2.18546193563776   -0.28745635884134    1.72259127963234
H          -1.61566920070353    0.43515719904344    1.39497785520387
H          -1.70531342568629   -0.65945366247590    2.46779464942507
O          -1.44974313606694   -1.97060513486347   -0.19747281438135
H          -1.94688764041214   -1.40727577092659    0.44285894894796
H          -0.29132961222919   -1.10299975554209   -0.48951946983548
H          -1.00890513584600   -2.64252963365266    0.36219898807530
N           0.90885726211686    2.67518168240503   -1.05839758420012
H           1.67029958873111    2.11577683766927   -0.54025295669959
H           0.73086440886509    2.21446074520821   -1.97710474365740
H           0.12144864559913    2.41518512630485   -0.39480915645163
H           1.09229812658625    3.66964359060498   -1.13025992747558
