    23
        -45.37997266  Gyration_radius:  2.33319568555 Dipole_moment: 3.119
 S          -0.18233758362330    0.65414380686474   -0.66058200429776
O          -1.07464120014137   -0.48141761414955   -0.50987354008955
O           0.96242386502371    0.54810424125453    0.25840512651714
O           0.23555176987874    0.91061289423714   -2.01817650211951
O          -1.02131325277770    1.89231708849132   -0.15058690168719
O          -2.05330412921059   -0.03314033059002    1.89795176079495
H          -2.10913834783458    0.92361615284436    1.94839874341402
H          -1.89678404010567   -0.22260667478233    0.94745098608102
O           0.05731639766005   -2.87717528674569    0.05963231695884
H           0.83819504164625   -2.64713195193217   -0.48257444343808
H          -0.63144624187078   -2.28325246110394   -0.28483713254337
O           1.83818886514109   -1.41218711648714   -1.36863004355784
H           1.76581559777529   -0.65482531017203   -0.76517448300011
H           1.48856855260640   -1.08398778561453   -2.20141639983185
O           0.35160410209404    3.51018942480349   -1.71866730988766
H           0.52360028839152    2.59711131685441   -2.03086810347914
H          -0.12081138044065    3.95291223749700   -2.42742764797399
H          -0.58477014175945    2.67631856840560   -0.54661992719770
N           0.33774836793920   -1.20905948360230    2.05622358002754
H           0.73103298140119   -0.44039637420912    1.43074796677122
H          -0.62250001953858   -0.87639834176108    2.30008107444855
H           0.25169283751028   -2.05063237267595    1.39799525700657
H           0.91530763022132   -1.39311463742314    2.86854761706793
