    23
        -45.37997266  Gyration_radius:  2.33319948771 Dipole_moment: 3.117
 S          -0.61422244117123    0.41459269066826    0.59052732074253
O          -0.31614826439703   -0.99849190594415    0.74154673606361
O          -2.10644469737539    0.45528863915142    0.07224576678418
O          -0.53168833500376    1.17735564533909    1.81317328420475
O           0.19366062431254    1.00938940053231   -0.48644801748196
O           2.27258353832232    0.78157606776190    1.21133049285045
H           1.80281243506903    0.90332928715824    2.04080641667337
H           1.64032174478965    1.07423506559355    0.53483922212876
O          -1.30586084935787   -1.96204976860218   -1.50519326190642
H          -1.05282081629609   -1.76115264901616   -0.57811102636964
H          -2.07647143082816   -1.41438756883684   -1.67030247228064
O           2.24413947619724   -1.77591973872307    0.30868231082293
H           2.57181532875467   -0.93099566255180    0.67677058644780
H           1.34957936384841   -1.84619775527985    0.68359853098938
O          -2.45412297716978    2.83289274335676    1.16224698948381
H          -2.42477954186896    1.35871116027006    0.28312990018234
H          -3.09082072194140    2.90850511316247    1.87669935386973
H          -1.64080270576050    2.45447087597915    1.55728862856798
N           1.12882898029771   -0.94411485979982   -1.90755777094897
H           1.72428776819968   -1.39661097645263   -1.13966767528616
H           1.63445255576691   -0.80000217989008   -2.77409801976306
H           0.25623522844144   -1.50636612947929   -2.02821147699163
H           0.79546574715084   -0.03405748442704   -1.46329580877272
