    23
        -45.37202091  Gyration_radius:  2.35745138415 Dipole_moment: 5.562
 S          -0.20204777704606   -0.57791069432205   -0.89840686610576
O          -0.19573479322733   -1.95312189073359   -0.47150178370417
O          -1.01313047615374   -0.29117188695574   -2.07244387936012
O          -0.86358747815905    0.28564067404986    0.24363466611006
O           1.15730093552795   -0.02613663326069   -1.05505613299176
O          -1.04859052183217   -2.76950849522441    1.91889031059277
H          -1.99245492414203   -2.92204075668806    1.85762137285481
H          -0.74300796423932   -2.59548992370369    1.00424879287536
O          -0.91842426384261    2.97085667067772   -0.09088525109540
H          -0.47820006394483    3.33966153928319    0.67735289827401
H          -1.08730836392244    2.03085567841753    0.11905970905995
O           2.23491107855408   -1.36348934571687    0.98388763957506
H           1.99555812716258   -0.84958024551025    0.18834037138965
H           1.92531098706321   -2.25534851697831    0.80219366187637
O           0.19153434657995   -0.43810782461817    2.40835330142304
H           1.07933264137360   -0.71036057868412    2.07331102718436
H          -0.44621777184373    0.02457464844578    1.15971479476912
H          -0.29000534167279   -1.28186617003603    2.53176311066921
N           0.14938905143448    1.93393201618823   -2.31254391563201
H          -0.55648246154110    1.12994724735658   -2.44330475424819
H           0.89661948830326    1.33977857266525   -1.84781176878129
H           0.43967142720820    2.38382864155628   -3.17339123970899
H          -0.23443589159068    2.59505726383799   -1.60302605498657
