    23
        -45.36866948  Gyration_radius:  2.27856632558 Dipole_moment: 3.034
 S          -0.77438786074947   -0.05360602910156    0.36174421212163
O          -0.14835772089035   -1.21670357533577    0.95583049694627
O          -1.81956387206944   -0.39568425833710   -0.58551647789856
O          -1.36736511146130    0.80522857292904    1.51131198841199
O           0.24605681542136    0.80444934463827   -0.29151626544907
O           2.45169099846540   -1.49790931914073    0.76117052246994
H           1.50789473835460   -1.62593564899996    1.01099742258679
H           2.66625307916253   -0.63478587175046    1.17704818170787
O          -0.35461546029379   -2.28129460255201   -1.70129577362781
H          -0.32675542346458   -2.92204701691995   -0.98486544981562
H          -1.02224650511302   -1.61436246067463   -1.41564576634547
O           2.03598594700849    0.97364693697051    1.69998129792577
H           1.39666381918819    1.08138321110756    0.96949433544728
H           1.51288476529827    0.96384411813627    2.50372031537430
O           1.71795889669913   -0.80256587343400   -1.50879890351751
H           0.98197201148906   -1.48085584656207   -1.73455970672713
H           1.16548591858645   -0.00871575888421   -1.12760236594232
H           2.19044475115657   -1.16626812608471   -0.60416863066560
N          -2.48467696813602    2.33804342314248   -0.25300353492332
H          -3.37545728521909    2.81639768242566   -0.29078375867075
H          -1.86685101430883    1.52777520356628    1.02032575579144
H          -2.54892125046779    1.47032286820585   -0.77974652868648
H          -1.78409325863059    2.91964302666403   -0.69412136656261
