    23
        -45.37876345  Gyration_radius:  2.39241059997 Dipole_moment: 5.187
 S          -0.09993666154788   -0.91025015123095    0.13296076829352
O           0.24475498320514   -2.40693277877611   -0.04302922020566
O          -1.54095389009236   -0.76787957917471    0.11391096141983
O           0.45858151465448   -0.45473329357313    1.40776376829525
O           0.52753040130529   -0.17612658006952   -0.98086722810165
O          -2.96638402402770    0.55588346672379   -1.64668955764748
H          -3.88903407453337    0.49003201784904   -1.39600027135289
H          -2.48164722374116   -0.08370841743699   -1.07239558227522
O           3.07854303218534   -0.80107371038981    1.52430753800412
H           3.24446399287915   -1.33473669460230    2.30327754076019
H           2.11982009400389   -0.58645489752113    1.54332947295854
O          -1.09617163139412    1.63326916636529    1.68717581088012
H          -1.93530085124425    1.18379552568887    1.81775627672160
H          -0.43026830572625    0.90533839796568    1.71887927358344
O           2.61766044934348   -1.90414629069363   -0.87571279781120
H           3.02133041974300   -1.56079078969832   -0.04953967958228
H           1.19468306068914   -2.40823238324284   -0.37052724870609
H           2.19217172094956   -1.13628471094814   -1.28395665341349
N          -0.85145752672989    1.99701501147048   -0.92277616080575
H          -0.48879908464745    2.85210481650502   -1.32934184934669
H          -1.75936613228994    1.69883210404423   -1.34318582863289
H          -0.18940580517189    1.16135146692870   -1.06420896912667
H          -0.97081443781331    2.05372830382234    0.12886967609253
