    23
        -45.37000659  Gyration_radius:  2.39034869426 Dipole_moment: 7.891
 S           0.72647412235586    0.38443533560804   -0.81660421168940
O           0.59836742329978    0.17545085409962   -2.26760108668241
O           1.63561340135724    1.43381718818241   -0.45659946682739
O          -0.72919356172274    0.78154345146725   -0.38745160042521
O           1.00993834916063   -0.88713559624296   -0.14149569367611
O           0.77275260314059   -0.83594704993963    2.49883188129727
H           1.00732417795360   -0.85960070607310    1.54676606228501
H           0.35031078865356   -1.67479446357049    2.69131540995151
O           1.38470743847202    3.12065780466070    1.57839848899748
H           1.26871116598777    3.97848343476665    1.16695570544757
H           1.63219892087285    2.50761342444745    0.85464580560687
O          -0.51792132985475   -2.86979047501819   -0.76355003578705
H           0.09271885150288   -2.14593934158875   -0.44842965394893
H           0.05493738366613   -3.54126410971531   -1.13830182890486
O          -0.61711737872296    1.41172630028207    2.04668290325281
H           0.05164952351621    2.13163633437094    2.04827357299334
H          -0.71838693204754    1.06422726848041    0.60880130328033
H          -0.14938100618857    0.63176294221189    2.41512670423346
N          -1.61797615973972   -0.97840011517727   -2.23410983581333
H          -0.62293712664888   -0.45229177112038   -2.37691705088671
H          -1.36033021295616   -1.86849306005695   -1.72856358112790
H          -2.12839535834867   -0.36665776131272   -1.59843076252946
H          -2.12406509371859   -1.14103991875940   -3.09774304904448
