    23
        -45.37876345  Gyration_radius:  2.3923975213 Dipole_moment: 5.187
 S           0.88636784588285   -0.04666481547043    0.26156452306971
O           0.76679949936448   -1.47656175631881    0.45719738048840
O          -0.24646214963674    0.67552428798621    0.86851789573648
O           2.17620879831696    0.43563461322699    0.96408508079888
O           0.98419602829069    0.28493868812990   -1.16147240839711
O          -1.14261735370350   -2.73220958824369    1.74614572766921
H          -0.33038778931781   -2.28689304465171    1.40579409509275
H          -0.96853399920927   -3.67337587873826    1.69745255548530
O           1.31488782274255    2.87972717182205   -1.55579176977258
H           1.13883496268432    1.91447334259977   -1.50231474125162
H           2.11805094101268    2.97279927730842   -2.07096043686860
O          -0.78776554176054   -1.45223572922597   -1.99658310486584
H          -0.11882095720209   -0.74303646505247   -1.84210820935251
H          -0.31364709120775   -2.26369389480239   -1.79666817134438
O           1.34734938545237    2.85718551108653    1.12518470086413
H           2.03167746018545    1.42000872162283    1.10454703541480
H           1.36627067462581    3.10949209185213    0.17681943863016
H           0.48515293759339    2.43629885426963    1.25475702551743
N          -2.18885063315734   -0.86284561097646    0.16987271352210
H          -3.13990141334136   -0.51325579860276    0.13403397852310
H          -1.80955660276749   -1.13662718438812   -0.78123811253554
H          -1.49223137256010   -0.12411311131866    0.52432993372107
H          -2.07702145228040   -1.67456968211528    0.81683487985321
