    23
        -45.37104294  Gyration_radius:  2.44577759832 Dipole_moment: 3.146
 S           0.05499106056407   -0.44334399867060   -1.14937269900450
O           0.70317168460332   -1.72430672579541   -0.47204252304556
O           0.94865093105280    0.66911691063358   -0.83333562628008
O          -0.07738860705473   -0.70235464897858   -2.55902400019807
O          -1.22000251680118   -0.28024662935207   -0.45013565926115
O           0.11220638054162    3.07334644331314    0.00756910165507
H          -0.29444451244313    3.54160418429075   -0.72242533448394
H           0.53338878500203    2.27777934494811   -0.38188508838915
O          -2.84991692137986   -0.63563410200113    1.79781305071521
H          -3.61329942323393   -1.21386511551146    1.77729202369846
H          -2.43347980611497   -0.70567002269596    0.92547867219043
O           1.67492858823666   -0.03630468626175    1.61424166202532
H           1.63601001782295    0.28126278718235    0.68600334400774
H           1.60693578742255   -0.99254776549793    1.54532957129167
O           2.05420577656419   -2.18236046780404   -2.68102224434800
H           1.34713835441998   -2.03148382885695   -1.14423927287082
H           1.88271074779756   -2.97931213674461   -3.18779090368276
H           1.34043955921940   -1.54851031886668   -2.91365824765230
N          -0.69381827410315    1.14800671653566    1.66907431994952
H          -0.96518002193940    0.59163749340596    0.80008110252715
H           0.22485677220074    0.73536238958538    1.96510932823860
H          -0.54131541571635    2.12027530556040    1.34509334263480
H          -1.43078893665611    1.03754885160207    2.36184608026179
