    23
        -45.37104277  Gyration_radius:  2.44586890929 Dipole_moment: 3.132
 S          -0.72344179385849   -0.35224009884551    0.93566398738883
O          -1.28847645266349   -0.90782946119606    2.13717709495185
O          -0.02394571693172   -1.32737131844606    0.09857208617473
O          -1.91641227181872    0.15471135173171    0.01911897226264
O           0.12507673086108    0.81533213901948    1.16550131028391
O           2.79994476919096    0.78537152255712    0.99124152638765
H           3.16423180083838    0.32102593536567    1.74570443318920
H           1.84411500167911    0.90005380215732    1.17900245545333
O          -0.10260194187171    1.99293398362699   -1.19624911339086
H          -0.98245017111507    1.70079802537849   -1.44985106890518
H          -0.03783872492893    1.77934598709280   -0.24009941846975
O           0.70877731599743   -2.34635264327921   -2.40355739382564
H           0.40104701757560   -3.20155695169321   -2.70606672102623
H           0.29565729471373   -2.19992407582381   -1.53918883445646
O          -3.29358671336491    0.74410322350099    2.18066605979165
H          -2.56526264857883    0.14864055084959    2.46400883702391
H          -2.55708582429184    0.51699546547658    0.66636800036971
H          -4.11130349082397    0.27753645479350    2.36814788039373
N           1.68650894140462    0.04348603829257   -1.31679377355901
H           1.02810342746024   -0.56404936564417   -0.73740195983500
H           2.45569014683442    0.31427772002609   -0.67771325461448
H           1.97590882000326   -0.48930323322856   -2.13390864496641
H           1.11734448371300    0.89401492825682   -1.55034248061981
