    23
        -45.37554776  Gyration_radius:  2.47730939268 Dipole_moment: 4.307
 S          -1.19693212044488   -0.69474749163979    0.11377566500454
O          -2.42391404794102   -1.16739931837208   -0.74020528685864
O          -1.09976154168982   -1.55229194166936    1.27950850500730
O          -0.01146039701665   -0.80361862363665   -0.74466957622921
O          -1.45611194170744    0.69884580803408    0.44442678086445
O           0.79494583846017    0.93829527540852   -2.50363841368410
H           0.41451447372981    0.21202316738362   -1.94813620060695
H           1.62569898108555    0.59733915411574   -2.83921286053450
O           1.48363837231208   -0.57524845508083    1.42502811977486
H           1.11741230494995   -0.72429660070493    0.53129483567107
H           0.78548392800486   -0.91306494367291    1.99704642434931
O           2.20802240720571    1.95987345047919    1.41721271340968
H           3.14873486294110    1.93704139422254    1.23457639201514
H           1.93727247667633    1.01528278834689    1.54772588042519
O          -2.01547361530552   -3.66620558331705    0.04752962240963
H          -1.53604008945700   -3.06587859951133    0.65828068742816
H          -2.72571175836776   -4.05893359383225    0.55994475951172
H          -2.38930497670166   -2.14518754945469   -0.70260591749506
N           0.27638295144747    2.43581495063118   -0.36217699670426
H           0.57144873520870    2.04378031003517   -1.28771950118449
H          -0.48719433654487    1.76550255632200   -0.00539752943024
H           1.07041904109104    2.38672610991910    0.32458275942661
H          -0.09206955794593    3.37634774604105   -0.44717086256281
