    23
        -45.37283362  Gyration_radius:  2.32816287561 Dipole_moment: 5.573
 S          -0.62285763412315    0.92885627953439    0.26434304068157
O           0.23234043895262    0.65364915693551    1.44968008706689
O           0.10139449525450    0.17579634115503   -0.91216042321252
O          -1.94005606935680    0.37036924125980    0.43091402856185
O          -0.57116355796207    2.32124391482396   -0.10928495214009
O           1.63464287272142    2.49511237640176   -1.41744041133897
H           0.76578019800276    2.59012921147379   -0.93548822289067
H           1.40919563436832    2.01856087979593   -2.22051848248964
O          -2.81856249170932   -1.71103926098089   -0.97244036573654
H          -3.28872950211280   -1.38181207813457   -1.73919820395219
H          -2.60464122796958   -0.92427649557488   -0.42733018010680
O          -0.80195772728056   -1.72694808077873    2.06438826275183
H          -0.41078910347260   -0.83447111499564    2.00745694988077
H          -1.75057413927733   -1.58386822716230    2.00297329693468
O          -0.23845261710833   -2.29561603633272   -0.47578941299712
H          -0.34559367369506   -2.28864737475628    0.50460364668865
H          -1.15214111619900   -2.37281279284039   -0.81246929538503
H          -0.01142161785779   -0.83395447098972   -0.77760426229748
N           2.52521293944246    0.87124774111274    0.41944024168494
H           2.28816414128429    1.54767205688490   -0.38680695960883
H           1.56077239992700    0.77066484658992    0.96216271282750
H           2.79232040215768   -0.03890774005111    0.05558919082848
H           3.24711694602148    1.24905165662607    1.02497970424690
