    23
        -45.37286538  Gyration_radius:  2.29715278225 Dipole_moment: 4.247
 S          -0.91914411337826    0.92725096599569    0.00546882670135
O          -1.31830169125104    0.92884354739697   -1.37925958141106
O          -1.12412545323886   -0.38352974957657    0.64256886683736
O           0.47158495711105    1.34727349009560    0.18455376059826
O          -1.82314912563676    1.95385914879489    0.75954090703842
O          -0.44638681410725   -1.47362433383966   -1.98060618499753
H          -0.85751877795010   -0.58096938963137   -1.92872141605092
H          -0.92564247461436   -2.00059401565850   -1.33554117954234
O           1.33346402823917    1.52609218317867   -2.44619445921621
H           1.07103895155032    1.80452853507915   -1.55861287823180
H           0.50657147127009    1.43944724988273   -2.92640599589018
O           0.95146252173601   -1.82280586820197    1.53732793129427
H           1.13340092284408   -1.46432227760747    2.40796810207535
H           0.13222964083113   -1.37639380950892    1.23287175158475
O          -1.48427102244674    0.60328932768543    3.03877385364585
H          -1.35409574150856    0.03342412410963    2.25177583629018
H          -1.68617427807277    1.76945189670012    1.70833530860800
H          -2.31839586629047    0.34124728808471    3.43432212913839
N           1.77261433954049   -0.72966324657544   -0.73874696274764
H           1.01303944356512   -1.10695693228174   -1.37658435824579
H           2.63958463474109   -0.57694953478970   -1.24438887297581
H           1.38584838395046    0.19225824885805   -0.37791899363197
H           1.84636606310816   -1.35115683819304    0.08947360914000
