    23
        -45.37286532  Gyration_radius:  2.29679317816 Dipole_moment: 4.246
 S           0.89199449009957   -0.94825251166148   -0.09768356612893
O           1.80225699417714   -2.04213851733243    0.54627250663878
O           1.03012033465953   -1.05234772802981   -1.52837259770998
O          -0.48562094648252   -1.21044410134766    0.34921651413125
O           1.33378065081046    0.35094600670450    0.41150781980407
O          -1.94456346568228    0.70859189322591    1.51833478663369
H          -1.67149254780586    0.68944866402995    2.43739718941784
H          -1.49522700994948   -0.05297294639961    1.09254203697705
O           1.82023571740203    1.72574977388197   -1.94825786188779
H           1.75885638397031    1.02059789446642   -2.59704924140809
H           1.99441261123816    1.27224795325356   -1.11273546803883
O          -1.26568588799779    0.05052364837175   -2.16610139039851
H          -0.39683291534355   -0.40877502314229   -2.11464353025675
H          -1.87301999054113   -0.52350895472860   -1.69161497639625
O           0.22609392343176   -2.10699409540517    2.70184184605186
H           1.52237866915866   -2.09304537781702    1.48009821943576
H          -0.25122440732544   -1.78834334944873    1.90703257710010
H          -0.10302530633466   -2.98938354362648    2.88596368013271
N          -0.59137682507615    1.92237389527104   -0.41653548466752
H          -0.92124516326813    1.33225849645625   -1.23454013806964
H          -0.36082619884837    2.86670952363651   -0.70937258339849
H          -1.29483838127862    1.85423641439483    0.34416872070052
H           0.27484929098812    1.42252197526130   -0.05746907864459
