    23
        -45.37432792  Gyration_radius:  2.32653329937 Dipole_moment: 1.849
 S           0.95316427438244    0.65374090999730    0.23604229987517
O           0.54809357354234    0.07695200753951    1.52201658224895
O           1.02158469443295   -0.39021408488542   -0.78897790952529
O           0.09058629166186    1.73934422461850   -0.17379323869798
O           2.38813574565600    1.24094288546451    0.41399480957148
O          -0.30686364307781   -2.54150496293071    0.31831612832090
H          -0.39944053278903   -2.29367259050150    1.24032142922353
H           0.39640802015028   -1.97432633544443   -0.02962351795890
O          -1.39298599697399    1.86601445613078   -2.37257815492493
H          -0.85136892567673    1.95608408151930   -1.55624883639997
H          -0.86356828741343    2.23894059670784   -3.07889589547904
O          -2.04181665893769    0.27826858208333    1.02065546163817
H          -1.12876717226803    0.15715612776909    1.36004114447763
H          -2.11845463971712    1.22544542225028    0.87397463760262
O           2.98040798434578   -0.72493713151317    2.08033784994579
H           3.25603698317820   -0.47847677483485    2.96603243471691
H           2.00619983384841   -0.63085714854980    2.05384515657979
H           2.87893113219770    0.55263099628186    0.90913407248063
N          -1.51006754346200   -0.61249791790587   -1.42678371508138
H          -1.89018605899080   -0.39483250017801   -0.46208381375738
H          -0.45751106846546   -0.63886756223377   -1.29212696418933
H          -1.85155828456044   -1.50575998823295   -1.76712252708375
H          -1.70695972116035    0.20042668674608   -2.04647743310625
