    23
        -45.37432791  Gyration_radius:  2.32664870013 Dipole_moment: 1.847
 S           0.93856361032955    0.09100659219911   -0.70764721564457
O           0.54317936607610    1.22812369783896    0.12658266429595
O           1.19343127245151   -1.08699415592459    0.12772694738527
O          -0.03896568946016   -0.17058049517624   -1.74033019663700
O           2.27726621737692    0.46396414976580   -1.41748893106320
O          -1.33415059312517   -1.86850994778162    0.14242411485310
H          -0.36603085566438   -1.72350166243942    0.21471158187435
H          -1.49015063506506   -1.97359860146741   -0.80052537963367
O          -0.06979486857027    0.11428914420015    2.57698371510343
H           0.37792188401219    0.61637490458536    1.88074011081299
H           0.27289546554150   -0.77873396142356    2.50567228088631
O          -2.37879111612074    1.03956177694942   -2.07780286335058
H          -1.52128319661735    0.55756063945156   -2.08634607431082
H          -2.24692522808934    1.81557098311507   -2.62428792782010
O           3.62253100384978   -0.30321637770825    0.72533258055472
H           4.27408881283228   -0.99775205080840    0.60580042865144
H           2.95788271980500    0.40050472442051   -0.71561565720049
H           2.74673150073293   -0.74058324436349    0.74265069461785
N          -1.98789195436726    0.67987075434323    0.52418106832370
H          -0.99389105943936    1.04542311361777    0.45222642429334
H          -2.46834986399564    0.95904073106951   -0.35612441629328
H          -1.87829446598902   -0.37386670523135    0.52340906749191
H          -2.42997233643322    1.00604601077944    1.37772700286490
