    23
        -45.37371428  Gyration_radius:  2.37820908695 Dipole_moment: 1.085
 S          -0.97909418280064   -0.39101517278443   -0.69168477766301
O          -2.37572284850798   -1.01655919043836   -1.01147231790530
O          -0.00837470082626   -1.00791609901497   -1.56673898527312
O          -1.08474084897053    1.05351614505760   -0.90326267499213
O          -0.68499882757586   -0.67921230564567    0.71604258257765
O           0.23102083862016    0.96552663542346    2.74876404714257
H          -0.30030124171197    0.39883088916757    2.16749762529611
H          -0.35776668811589    1.65845938581601    3.04952297886711
O           2.24429347867635   -2.26387990786501   -0.88114280454460
H           1.42546219386418   -1.86031349145567   -1.24442108060591
H           2.07028126128966   -3.20462358367516   -0.82969490100589
O           1.50180236548175    1.44560917352093   -1.26447653002165
H           0.52599716927760    1.48030213444129   -1.15527448720159
H           1.63697494049889    0.87354129582267   -2.02542798932997
O          -3.46765359393543    1.09892145616759    0.17155806719279
H          -2.56681456132820    1.33352228789766   -0.13570630251848
H          -4.07732555714838    1.62013951747009   -0.35565497816765
H          -3.00041140024340   -0.45417360416571   -0.51147516396255
N           1.89215145634088   -0.20978398066777    0.76933821065193
H           2.22269421506620    0.10591247652172    1.67751716166821
H           2.37683864531036   -1.03959714333132    0.38085592601959
H           0.86577000363301   -0.46954006937406    0.84938331756644
H           1.90991789317313    0.56233314113562    0.04595305620473
