    23
        -45.37703257  Gyration_radius:  2.310539908 Dipole_moment: 2.511
 S           0.76177490600359    0.49663414055690   -0.90124668765757
O          -0.61086272298599    0.36755614666750   -1.39530664379300
O           0.79238327937310    1.21654426152453    0.37246891503438
O           1.40813285327368   -0.79945217675198   -0.82308414566614
O           1.56580092659015    1.34392149776328   -1.93778929048131
O          -1.28920823072883   -1.91352263843961    1.58463303904234
H          -0.34820437083930   -1.82717760519068    1.86402513290834
H          -1.62241987724536   -0.98698359519991    1.59536141262275
O          -1.71210115591038    0.69264059640642    1.18035214477717
H          -2.14104954624156    0.84126870847896    0.33328418656142
H          -0.78344477555926    0.95075971907680    1.02365639577811
O           1.28047602798568   -1.23495401132258    1.81691467357747
H           1.48652275132054   -1.15548429364092    0.86574254635875
H           1.29684095958828   -0.32958550945609    2.13905277471996
O           0.75362706940687    3.58484824196099   -0.78302178900279
H           0.65979443812214    2.86303653163232   -0.12986810595544
H           1.42928859592425    4.17608570897215   -0.44357765683001
H           1.28595676741776    2.27106304143530   -1.79051045031315
N          -0.86604827153866   -2.15229474459063   -0.93803918892264
H           0.14779531021870   -2.29489825490249   -1.01369727335007
H          -0.96689891851579   -1.13508329020013   -1.24769251428684
H          -1.39903858534858   -2.80358396932671   -1.50383676474122
H          -1.12911741032782   -2.17133851544574    0.13217928962266
