    23
        -45.37703263  Gyration_radius:  2.31076427702 Dipole_moment: 2.513
 S          -0.40356190643949   -0.39255096627491    1.14972226762833
O          -1.51713349738569   -0.33718640892556    0.20017702889810
O          -1.00046730330826   -0.61438245297328    2.57553731864183
O           0.45808704447734   -1.52568379122185    0.87170364175192
O           0.32681767637165    0.87536619147808    1.17221798648072
O           2.50491146688764   -0.28200685843474   -0.32818075106487
H           1.88519144122573   -0.83929777574745    0.18058995099683
H           2.45251048510395    0.57864372335602    0.09639140737974
O          -0.32894858897659    1.75013930019101   -1.27821240469869
H          -0.00022272817114    1.55585725718376   -0.37942440503756
H          -1.25861720979960    1.50905700495664   -1.24301791024480
O           1.08380526327510   -0.10650932452910   -2.57924276795777
H           0.59213745200837    0.70132080683550   -2.30496981126672
H           1.80388673850292   -0.18034201782861   -1.91064060000252
O          -1.34691707352201    1.99442614869596    2.87236861352777
H          -1.35833414102284    0.25601157993008    2.84765396686195
H          -0.90128300324897    2.41751531161208    3.60974532122641
H          -0.67224526287788    1.86155397563144    2.17693288723771
N          -0.48152945715942   -1.88140894170139   -1.57910711354116
H           0.17458684173926   -1.19201967333746   -2.13501960609435
H          -0.99402885036109   -2.52685390019736   -2.16995874364415
H           0.09107639113411   -2.35641138567908   -0.87175303997162
H          -1.10972177845866   -1.26523782303377   -0.97351324711123
