    23
        -45.37811687  Gyration_radius:  2.37702025312 Dipole_moment: 3.951
 S           0.77305206342984    0.42242941637062   -0.25004046321564
O           0.93033635163253    0.37121459759742    1.20383113776828
O           2.17605630508482    0.50168383675182   -0.89478610090062
O           0.12401780735166   -0.81292566189853   -0.73289886426653
O           0.03734726105619    1.59358112306821   -0.67751833514148
O          -2.17187060586548    1.66668455494853   -2.09548427615492
H          -1.31497866405374    1.79213899248644   -1.62207731806963
H          -1.94188343618762    1.53106281754309   -3.01608766554076
O          -1.47606768691389    1.27105522094672    1.73947319289132
H          -1.42568616102727    2.15483701158018    1.36433787345139
H          -0.54787813385086    0.94005602232548    1.70313312292267
O           1.26882973661276   -2.25335693131928    1.25371103265435
H           0.78240991476828   -2.26280579125998    0.41760763115091
H           1.13227653878199   -1.33920201130207    1.56822346947437
O           3.54958364305818   -1.39327406308997    0.23663946051412
H           4.03458977470204   -0.99519124298205    0.96280354088335
H           2.80194060363893   -1.89798211717410    0.64593518959557
H           2.74280340511003   -0.23647562686575   -0.52965037507489
N          -2.33672834354213   -0.23586112177311   -0.25292368764700
H          -2.17596618778294    0.33434490194322    0.62817505236501
H          -1.36446130576183   -0.62685652603980   -0.49140982871788
H          -3.03843437314608   -0.95771127162144   -0.13259511043608
H          -2.55928850709540    0.43255387975249   -1.02839867849335
