    23
        -45.37432796  Gyration_radius:  2.32628706749 Dipole_moment: 1.839
 S          -0.30309729542883   -0.09242939312822   -1.13601718595550
O          -0.46573730009432   -0.47704890440385   -2.63965815210806
O          -1.37571727660466   -0.75856824091474   -0.39007499562517
O           1.00372241594041   -0.57965995230535   -0.68892847426012
O          -0.38734628087781    1.34829813635776   -1.04756536608774
O           1.43365794274978    2.99885519091523   -0.04134609347142
H           0.71241393404386    2.49650457190866   -0.48325217125434
H           2.04803260178763    3.23844761321838   -0.73660239190082
O          -1.32455143483275    0.96797183085152    1.61371754446557
H          -1.47909369384612    0.26469325067396    0.94660201989182
H          -1.50269434518380    1.78713633752090    1.14276604993267
O           0.48234835448383   -1.89792272107435    1.67923214499391
H           0.72099809711893   -1.72180571008869    0.75762464512419
H          -0.47380413780409   -1.97347434223197    1.68332981021864
O          -1.30959806449011   -2.87972928613785   -1.92814070648289
H          -0.64057561103829   -1.44104123469477   -2.63251987928681
H          -1.44735408302403   -2.27205903488730   -1.17287534770353
H          -2.18112101031917   -3.14549501087636   -2.22972013808290
N           1.32742574824804    0.83440707946268    1.49332580918178
H           0.30169804746929    0.87704873477415    1.75551332024969
H           1.88721898394890    0.44856416323437    2.24705658454653
H           1.35305257685775    0.19958474139583    0.64298627953321
H           1.62012182098952    1.77772217037453    1.16454668407552
