    23
        -45.37345496  Gyration_radius:  2.36273738525 Dipole_moment: 4.470
 S          -0.90024505574585    0.25007769988350   -0.53102535589745
O          -0.44338551140456   -0.04054978615972    0.96049010651172
O          -0.33805799992396    1.55184378035426   -0.84019351386302
O          -0.21064288272161   -0.78752063996839   -1.33390225030332
O          -2.32830660168511    0.14107837359028   -0.58842602001680
O           2.23150752137395    0.51447864298173    1.36413731302079
H           2.01086278763902    1.47226002813248    1.40024780997994
H           1.38356389042884    0.07744305746409    1.53692473582261
O           1.10472809926814    2.88154817164215    0.92249375277166
H           0.53379390509272    3.33747898282019    1.54218550327866
H           0.50544631397392    2.45974671249035    0.26520073737261
O          -1.61000592856660   -2.97688971534323   -0.73015026241293
H          -2.33153708188899   -2.99869687161889   -1.36189965372066
H          -1.03934735676981   -2.23232213777100   -1.00844724348859
O          -2.40409072324428   -1.60486940808092    1.43694333944393
H          -2.14929692399014   -2.34088516149214    0.84038029333185
H          -1.13864540572124   -0.67926520438581    1.30999489685644
H          -2.89345451096590   -0.99423346203230    0.86296539383503
N           2.04513546476800    0.39000036562597   -1.23320357776869
H           2.82170885529920    0.10812240248759   -1.82279731571647
H           2.28368089059572    0.38029147283400   -0.17963577014460
H           1.70181379944670    1.32668331207636   -1.45886072739431
H           1.16477443496226   -0.23582061574698   -1.35342218125704
