    23
        -45.37187237  Gyration_radius:  2.45176471682 Dipole_moment: 5.602
 S          -0.67786202034581   -0.24488991455595   -0.71643006578118
O          -1.22147180551438   -0.51628197529698   -2.14405142764575
O           0.76808519239777    0.01656947994803   -0.83753701503592
O          -1.37287326348244    0.89576802151873   -0.15338456404058
O          -0.90906905458024   -1.48176613468036    0.03195703398732
O           0.22730825618327    2.69804005531664   -1.23360172398353
H          -0.44177440642149    2.23127797594126   -0.69246057938192
H           0.98357550837056    2.10082360365375   -1.20937646569242
O           1.41672357572006   -0.85978996189634    3.07945820283538
H           0.51579084821609   -0.49052918378557    2.89117621247725
H           1.33406321177871   -1.34161538775155    3.90409501447981
O          -1.03777261683557   -0.19637576283701    2.36751107767871
H          -1.24478121520628    0.66006059852013    1.97702360938912
H          -1.16407105860580   -0.80879886004728    1.61830351544794
O          -1.07669315334940    1.78764109183373   -3.34099475614785
H          -1.94975611891362    2.18354503977772   -3.29592994716989
H          -0.52492504189688    2.26469305964012   -2.66934638698867
H          -1.15519042683465    0.32474739592546   -2.68031325041259
N           1.55288721418648   -1.88422760420394    0.63458433162355
H           1.67512460083845   -1.55833054548044    1.62932812540059
H           2.22578830617955   -2.58770101251663    0.35295004013876
H           0.55268584906340   -2.16829937882310    0.50053014745842
H           1.52420759910937   -1.02456060017271   -0.01349113861594
