    23
        -45.37376551  Gyration_radius:  2.33155009712 Dipole_moment: 1.663
 S           0.78830734233093   -0.81632079719280   -0.13291734457931
O          -0.51505104639371   -1.48173648512767   -0.23532423589114
O           0.91219881025546    0.24408746165235   -1.11641505038925
O           1.02942290393709   -0.32100906501308    1.21709321388324
O           1.88591111678182   -1.89217468021044   -0.40719657104675
O          -1.45230687624009   -0.50359443963360    2.40641766983584
H          -1.95651821164681   -1.03920494281987    1.79041338591645
H          -0.52588496118272   -0.66887109572525    2.18057955107513
O           1.31969521424591    2.80502658537361   -0.60924272255348
H           1.21637495708217    1.87381105615816   -0.91622824130460
H           2.26385930569884    2.95122569936174   -0.53605692011274
O          -1.84293944796531    0.75595810170868   -0.70436363676743
H          -1.49920738684229   -0.14897748187548   -0.54095987353294
H          -1.37393513548534    1.04935831512528   -1.49147490146401
O           0.29110996903632   -3.12146202993710   -2.12123567153407
H           0.07263404436097   -4.03406928122953   -1.91910309829576
H          -0.26658561096814   -2.56534624546007   -1.54002678756348
H           1.54924737074756   -2.40887093543187   -1.16872277269036
N          -0.39011634516218    1.89830587486609    1.19658243883419
H          -1.14071193377037    1.54481703464334    0.53484123603259
H           0.21400569989401    1.05094620716413    1.38237511976538
H           0.20966945005609    2.57198249030463    0.67257369550405
H          -0.78917921875031    2.25611864323471    2.05839151688353
