    23
        -45.37376543  Gyration_radius:  2.33141651201 Dipole_moment: 1.660
 S           0.17122070241340    1.09367944607999    0.28324188068218
O          -1.03798374618576    1.13413481090561   -0.53050368239890
O           1.33696932854818    0.68543374687425   -0.50831992829172
O           0.42314166491982    2.55664587739543    0.76674680725210
O           0.00096065956254    0.23692823969510    1.44249173204289
O           0.90319478491942   -1.90192627464173   -0.18090506271864
H           1.19616384304473   -0.98932466659600   -0.39343767867519
H           0.92064123350614   -1.93892079578307    0.78027591213594
O          -2.11377448320036   -1.25159099689282    1.98694085313657
H          -2.74769372916910   -0.71183867158336    2.46126959468225
H          -1.29864869099476   -0.70217663549531    1.91120280263088
O          -0.28919529728456   -0.18048280358146   -2.83617219331955
H          -0.54743243039020    0.51723785489598   -2.21729865864747
H           0.66546711516725   -0.23811836325477   -2.75993218409623
O           3.01629224314453    2.07382218478628    0.95677727243489
H           3.59226253086362    2.62200697375653    0.41896518042672
H           1.35969744271472    2.56999025768850    1.05453159853065
H           2.62992558009746    1.40294634503940    0.35780013263821
N          -1.66755853063345   -1.42262052859696   -0.61682203278742
H          -2.10968296031427   -1.60095650379516    0.31096359060122
H          -2.17210389386807   -1.79646438113026   -1.41408582192107
H          -1.56123348956703   -0.37363915433771   -0.69402014034662
H          -0.67062986732594   -1.78476597138555   -0.57970997399015
