    23
        -45.37376562  Gyration_radius:  2.33178313557 Dipole_moment: 1.661
 S          -0.65530647370667    0.46509107489806   -0.81089115247268
O          -1.47471650077185    1.15912090060679   -1.94407685911882
O          -0.32351199170496   -0.88710882715525   -1.27324112874888
O           0.54555962733969    1.23948397045138   -0.55556167895929
O          -1.52438869680789    0.42996741388171    0.35938904692587
O           1.72624363728705   -1.16179962860710    0.37342944137575
H           2.24801349151640   -0.40265551448825    0.09601598731512
H           1.00332312181238   -1.21381981613131   -0.28883857647400
O           1.24582266321227    2.31511701170343    1.75409922694773
H           0.83406724658687    3.17782568487135    1.82098378894896
H           1.06289668694433    2.00201648971776    0.83720846785032
O          -1.39231016739742   -2.20444845634937    1.16321754214910
H          -1.71902677185479   -1.36663757391341    0.80558219785119
H          -0.97135651564892   -2.64302337661413    0.42095986528918
O          -0.09681031632759   -0.14933948704185   -3.78276904564361
H          -0.00278206870828   -0.63439476290386   -2.93777791721347
H          -0.60244510136704   -0.71650318260958   -4.36940054187479
H          -1.01393119867267    0.91748682856623   -2.77454158497444
N           0.22316568871802   -0.07206807796699    2.26583925325295
H           0.67677245547005    0.85206088314445    2.43492515811888
H          -0.60476687595400    0.11891598569457    1.63693189052860
H           0.87830704780003   -0.65369665380450    1.66682384445364
H          -0.06281898775560   -0.57159088595332    3.10169277446552
