    23
        -45.37376553  Gyration_radius:  2.3315338602 Dipole_moment: 1.659
 S          -0.18357903447076    0.87100830140481   -0.71550928211051
O          -1.40314453855092    0.81621130294208    0.08201876628000
O          -0.39942471506556    2.00354818784588   -1.76824215357739
O           0.97556045958342    1.24545431561325    0.10198454866612
O           0.05051309099465   -0.38102697259918   -1.41160825519769
O          -1.37881640996992   -2.59052020031270   -1.17125387956264
H          -2.11273782421283   -2.54249480865842   -1.78545473832392
H          -0.80775216357027   -1.81327744478929   -1.37586825590235
O          -0.46271256071463    0.88987141829954    2.67335998268034
H          -0.88664756320318    1.14264288948324    1.84104137890010
H           0.45760087153624    1.13997040130385    2.56817782871024
O           1.47332740269857   -1.23030902970086    0.88583278268482
H           1.42039532090477   -0.26993831060822    0.68944343113432
H           1.58725067638187   -1.64292047816056    0.02424146306794
O           2.20909223540696    2.41807981346120   -1.89738829757365
H           0.49935994753591    2.22433707343922   -2.09023854782410
H           2.51214157886088    3.29849621085734   -1.66397269093980
H           2.02139343770894    1.95495586987623   -1.05574579566175
N          -1.13618050319613   -1.53313024527884    1.24328354072081
H          -1.39787599098308   -0.57588044178175    0.87865658111281
H          -1.40695951553970   -2.21033377125623    0.49744592800939
H          -0.07653882758032   -1.51211745947078    1.29741638714540
H          -1.55426537456061   -1.70262662191116    2.15237925756321
