    23
        -45.36626084  Gyration_radius:  2.33506424025 Dipole_moment: 6.153
 S          -0.07735520510060    0.14008062357981   -0.64164377531026
O           0.58500664030833    1.23943957988585   -1.50647503204809
O          -1.37793935576240    0.65086183721059   -0.17904223040439
O          -0.25758284353540   -1.04587252748242   -1.46454014414341
O           0.78558233953806   -0.12911003330548    0.50630792594356
O           1.35218537213660    2.12331421698477    1.79672209472477
H           1.16640388702564    1.23781928798073    1.41817809374868
H           2.30403423493166    2.23303272190064    1.75836836222975
O          -0.21323938428687   -2.21470126809891    1.74835640103817
H           0.22994261786235   -1.40224320555002    1.39934011102450
H           0.40877483274685   -2.92863997851327    1.59125320933115
O           2.42356811028376   -0.98909861649840   -2.16278039900299
H           2.46910723591491   -0.04106332592576   -2.30189461519062
H           1.49295045160371   -1.17039721471636   -1.97893286856832
O          -0.26301230133899    3.16051965410326   -0.06440795207890
H           0.32035336465434    3.01359705814381    0.71297837699176
H           0.33381735809090    2.11817732969863   -1.06825159283875
H          -1.04175410030865    2.60853403692055    0.09259449055712
N          -2.18466416481761   -1.75861953161067    0.07890300967096
H          -2.15757599910098   -0.69091211239078    0.13293308775340
H          -1.57029248006521   -2.10546152459615    0.87213446842405
H          -3.11342949516810   -2.16581103803431    0.04849658538354
H          -1.61488114561150   -1.88344594969340   -0.78859758723450
