    23
        -45.37376557  Gyration_radius:  2.33166837954 Dipole_moment: 1.664
 S          -0.22187154848805    0.41215453255125   -1.04193021825394
O          -0.42553111681242    0.98326179956885   -2.48053527333100
O          -1.10433216461464   -0.74345456263744   -0.93195738541926
O           1.16976257058342    0.03351044408575   -0.87794766409353
O          -0.59757182409401    1.46616267818389   -0.09323179859010
O           0.80710152764008    0.44705444197472    1.90135965853380
H           1.67624168190057    0.44106952602291    1.48898132904098
H           0.24286911527554    0.94389659695263    1.27000171176708
O           2.06966759319033   -2.37306707429919   -0.26090621671762
H           2.17076065565354   -2.87365488757502   -1.07164000591137
H           1.85182866269044   -1.45295186558104   -0.54029502130365
O          -2.45824240522394   -0.27923990697110    1.42556500394779
H          -2.24940591146595    0.63540907839696    1.62642968507665
H          -2.25758233663285   -0.38044206058131    0.48430304387184
O           0.26392966580044    3.39728511231188   -1.64991619300625
H          -0.00596491995594    2.87731485121822   -0.86580654966071
H          -0.06782767025585    1.89479506492850   -2.44374517936877
H          -0.39334207587079    4.08813077168750   -1.76017525716114
N          -0.10161651666911   -1.93979029868240    1.18985025139465
H          -0.63108598866507   -1.59535541435256    0.34206004930210
H           0.74650661365019   -2.42438055511801    0.82385969500125
H           0.21353848009491   -1.05278397095485    1.67988016773122
H          -0.69783210771966   -2.50492431111929    1.78579615714381
