    23
        -45.37344824  Gyration_radius:  2.25375312617 Dipole_moment: 5.462
 S           0.46356824473765   -1.25397115309481    0.60831076616344
O          -0.17346251500203   -1.51443844839125    1.88695858002996
O           0.56309342430566    0.34164232132969    0.49770703250795
O           1.81170436078411   -1.73999395421107    0.46252776279977
O          -0.39540658061310   -1.63236158632009   -0.51399882130350
O          -1.38065744444256    1.91039144867419   -0.70561880577439
H          -0.74965533054748    2.39163721186438   -0.16535454433143
H          -1.75450165153360    1.22507136604592   -0.10879267220322
O           2.61325473115031   -0.27099845408424   -1.57681443166782
H           2.37755846316929   -0.77279457286783   -0.76026662191771
H           3.23591413302910   -0.82873243335917   -2.04702890958354
O          -2.25633278881172   -0.07713679023109    0.97726921306082
H          -1.54242736675544   -0.64390871238208    1.33185484519573
H          -2.78479844016810   -0.66608985878864    0.43449007202485
O           0.04357121166496    0.85138891145638    3.03805002999409
H           0.53655170333908    0.69568171008482    1.41401127825211
H          -0.87535892981557    1.13145597248670    3.07521712030038
H           0.01664598575494   -0.12340515930365    2.98811932998227
N           0.04939076547631    0.21609133394966   -2.21136372901695
H          -0.21427626990889   -0.64384973254054   -1.61569857774136
H           1.08549984465475    0.26963581873289   -2.09347313963242
H          -0.22351575795214    0.12104069724597   -3.18321141719536
H          -0.44635977251619    1.01364406370607   -1.73289432993960
