    23
        -45.36003488  Gyration_radius:  2.46079976698 Dipole_moment: 6.955
 S          -0.49109682637931    1.12310466838942   -0.36524034615145
O          -1.43729151968645    2.14945705339152   -0.82232506147208
O          -0.95247846081975   -0.20931435060239   -0.80097418256907
O           0.78954547074557    1.41571279826524   -1.20477190692391
O          -0.18877378166660    1.18193748557898    1.04063024426403
O           0.47625708281301   -2.47545769084800    2.53691709943495
H           0.34844213277595   -2.63691516255905    3.47290639886232
H          -0.36182258163895   -2.07718077615111    2.20992057848365
O           1.94571558789772   -0.29490896436636    1.87552156765520
H           1.20152287918031    0.31713269346369    1.73881335623477
H           1.53849612097399   -1.15332958488675    2.11806280782533
O          -1.63923630082587   -1.05321759592180    1.67703415859249
H          -1.52601338611241   -1.05518741833467    0.71330647427249
H          -1.31584688759717   -0.17678857521057    1.92592521887380
O           2.67483283763562   -0.19939615011976   -0.60094267092411
H           3.50515635377032    0.28157107387581   -0.61012895092357
H           2.45927365457967   -0.34850189699846    0.36990842707245
H           1.52930098662102    0.75344762600382   -0.98966904206517
N          -1.73340540853539    0.88554360963125   -2.93134606370376
H          -1.71142782256799    1.67316856865280   -2.12785644889449
H          -1.42710273535412    0.11660901388833   -2.24762533957629
H          -2.65135445921883    0.72698316324971   -3.33289950974201
H          -1.03269293657076    1.05553039160974   -3.64516678860993
