    23
        -45.36003498  Gyration_radius:  2.46070668602 Dipole_moment: 6.957
 S          -1.16556619573976   -0.46986883260074    0.23621739223531
O          -0.65021717785674   -1.09001905772450    1.57043802227234
O          -0.23333566799741   -0.94343047893559   -0.80514629560456
O          -2.47776607419368   -1.10426734991288    0.05281839599435
O          -1.21230710139538    0.96488158721575    0.33952753574345
O           2.06170051822203    2.64166677922807   -1.24948452109729
H           1.32265957115706    2.16927071311069   -1.69521199520037
H           2.02790265538944    3.54688799459669   -1.56242214606171
O           1.06042094372550    2.18119575197645    1.22774676464481
H           0.16889864768641    1.90670380033609    0.95022602455602
H           1.54610948617926    2.37354665435504    0.39789374664295
O          -0.15228862567195    1.40522805716294   -2.14737307522637
H          -0.75087859466080    1.68200445440341   -1.44038523403808
H           0.01492765367249    0.47416510188384   -1.93116978293847
O           1.63496215311961   -0.14013543596716    2.20464220962745
H           1.66438590736903   -0.02266631042001    3.15659429415579
H           0.27303357608733   -0.73805936897310    1.80704387232654
H           1.54087842970663    0.78460812524502    1.82073394815833
N          -1.33306675214342   -3.20119636997422   -0.59880821350743
H          -0.59786598420228   -2.45811297328418   -0.84188386157934
H          -1.03179067408037   -3.79134793991848    0.16957502625086
H          -2.07520403268130   -2.42406538237216   -0.26302528158233
H          -1.63559267169003   -3.74698951943140   -1.39854682573707
