    23
        -45.36003490  Gyration_radius:  2.46081621721 Dipole_moment: 6.960
 S          -1.00279175750825    0.16587354815673   -0.77578391112074
O          -1.41692186431890    0.41231282962164    0.58039739132004
O          -0.33453822949451    1.44034069923208   -1.37528200247441
O           0.01194452879646   -0.90018007785028   -0.88470529672994
O          -2.10841839494583   -0.10520770092800   -1.70410123741002
O          -0.52635790330636   -1.99717961555992    1.53009537607234
H          -0.12242028515783   -1.87314026485078    0.65656587035936
H          -1.17008891879928   -1.27686413500738    1.56915132504368
O           0.47210825663490    1.46124806109746    2.24327496538747
H           0.88470834577131    0.66425017422638    2.63839413662123
H          -0.32062269427514    1.14086237292027    1.77841389833207
O           1.29937387678779   -0.93783458715994    3.19779564123439
H           0.70412115315293   -1.44266344588283    2.59873558846318
H           1.02986315783342   -1.15829110609038    4.09069070932336
O           1.63333001866917    2.21011256644242    0.06059417804114
H           0.46857369853719    1.72861439056572   -0.82381098000509
H           1.63914588330908    3.16940479894134    0.08404941147910
H           1.30104923857499    1.91945281060007    0.96416518029619
N          -0.46709936849529   -0.94411587466288   -3.35788741402924
H           0.04953947648605   -1.09653138126788   -2.42940592533678
H          -0.01765467501932   -0.23429354443398   -3.92673560872499
H          -0.62514698075719   -1.80082962070110   -3.87759525733610
H          -1.38169657245276   -0.54534088745022   -2.83701600880658
