    23
        -45.36019546  Gyration_radius:  2.47532967137 Dipole_moment: 6.752
 S          -0.28937452301592    0.39791992276985    0.92277983642704
O           0.99984105318694    0.71085159381521    0.13630526003570
O          -0.46113528637800    1.61393320917636    1.85571914251102
O          -1.40578705998344    0.32555297351421    0.03803504757542
O          -0.02043973970703   -0.77034205148565    1.72314133162291
O          -0.30330037068906   -1.09917002525771   -2.83290326201042
H           0.00445761899364   -1.61341774331929   -2.06459497235475
H          -1.27379855560383   -1.03347165009153   -2.71781627831131
O           0.65470792764054   -2.18651678322668   -0.48746946952126
H           0.29691889574914   -1.82131938605466    0.33774200866395
H           1.60825574034070   -2.10422216648481   -0.42321968420896
O          -2.84151673407004   -0.53957039451403   -2.09616802233005
H          -3.15647005945751    0.28664563634848   -2.46769995585391
H          -2.44938477253078   -0.30789979418802   -1.23753473869681
O           0.56545510533756    1.24978292441414   -2.27262064771686
H           1.40705708952588    1.33349113443635   -2.72651258163745
H           0.18279387322661    0.35154472422340   -2.55726831094974
H           0.79375611285940    0.99715357461863   -0.84201181395276
N           1.22711636527983    0.85393671655694    3.64570557431038
H           1.00712244218996    0.87912968256951    4.63235513213535
H           2.20481307484134    1.07974164103972    3.52195097667815
H           1.05220047292426   -0.08144721729213    3.28700740443660
H           0.19671132935424    1.47769346841376    2.62507802314277
