    23
        -45.37048818  Gyration_radius:  2.44678466178 Dipole_moment: 5.471
 S           0.20274012925771    0.45008058344398   -1.02671561942954
O          -0.16102066562888    0.55952857016236    0.40707926427218
O           0.16505513881973    1.89368805862285   -1.60356736183081
O           1.58588586283382    0.01416009751775   -1.16252924799437
O          -0.74729801290831   -0.37741918284697   -1.73602281520814
O          -0.19400648058804   -2.11223479785879    0.49407834884899
H          -0.30719659699370   -1.14497047509308    0.55285918819075
H          -0.29477844736647   -2.30468616355593   -0.44211058018471
O           1.95491063840014   -2.36062910295760    2.04107603013224
H           1.19993311759317   -2.43963045851713    1.41131791431196
H           1.62581661988389   -2.67295471782172    2.88566672549662
O          -2.88247457555150    0.35044003875197   -0.35801016659151
H          -2.40232619558673    0.47934307486818    0.46611968094466
H          -2.23566335358606   -0.09605134070598   -0.94410875245856
O          -2.35051682411443    2.55540098607674   -1.71171544683440
H          -2.64081508600608    2.38736536193744   -2.61093093478200
H          -2.71638332006894    1.81554705013861   -1.16402610268971
H          -0.77848709414629    2.22275489207870   -1.63467736649344
N           2.23777247407362    0.17001839413378    1.27132171383147
H           2.92960747398441    0.81218919096707    1.63981414930506
H           2.26840079978216    0.06747183502561    0.19718427742262
H           2.28826210674583   -0.79133649091083    1.69562896532711
H           1.25258229118052    0.52192457656122    1.33226812644029
