    23
        -45.37089128  Gyration_radius:  2.43723532637 Dipole_moment: 4.919
 S           0.49656495185480    0.72602848647566   -0.60573569664688
O           1.45682934819646    1.05514327019279    0.42553119572498
O          -0.00019215105963   -0.65743523503579   -0.44653738198732
O          -0.62375632631782    1.65981586163383   -0.67876299787515
O           1.18305856840911    0.80341880068879   -1.99746374811170
O          -0.53350012925317   -0.09054954883047    2.10026315763496
H           0.09900807322067    0.62788775453982    2.19785072961197
H          -0.31975534906692   -0.47155480916817    1.22763913502142
O          -3.16441666420478    0.21923786946419    1.82101775468926
H          -2.22954752257015    0.04800857307155    2.08583037139421
H          -3.36333485098500    1.10879026001624    2.11912403402063
O           2.56787442944545   -1.33860826895636    0.59628182963971
H           1.76029008118550   -1.83786926790160    0.44090333790373
H           2.26413177974492   -0.41444852144416    0.72033682538950
O           3.35267016579948   -0.62145483922139   -1.81874221342276
H           4.08345804390598   -0.01216112373427   -1.69321387984344
H           3.18208666222289   -1.03084020839153   -0.93274076420560
H           2.00651661325742    0.23636149235905   -2.00230227357474
N          -2.49926596177914   -0.01946509515632   -0.73533121054874
H          -3.15801995496040   -0.15579792720129   -1.49318640687794
H          -1.88439549659947    0.87111017855871   -0.82391478282130
H          -2.95058802337740    0.01106940836732    0.21867450317754
H          -1.72571626706428   -0.71668712034035   -0.72552150830916
