    23
        -45.37156684  Gyration_radius:  2.50070813074 Dipole_moment: 5.866
 S           0.22097723039802   -0.28206415271644   -1.00940179476220
O           1.34028683087983   -0.62103255505696    0.04070702705412
O          -0.25503218512643    1.06943534170188   -0.66008037570342
O           0.79104200038237   -0.34735200500505   -2.32690398792277
O          -0.83100330195934   -1.27214865654469   -0.76810178207356
O          -2.01108606836548   -0.43464442056870    2.89092766779635
H          -2.60984632931170   -0.95290444299211    3.43084786196550
H          -1.31947778883938   -1.06817696742166    2.56382294090959
O          -0.33797332086092   -2.09890432693342    1.72034620897620
H          -0.52647184644204   -1.94981850918436    0.76998682700509
H           0.59607779845124   -1.88844635799826    1.80513122950762
O           2.85470979752286    1.23214158978449   -2.80838376167766
H           3.54896610686240    0.65723221933573   -3.13481805005857
H           2.04559956773390    0.67568629279574   -2.76272722733125
O           2.36572769171113    1.71201476827054   -0.22267387512544
H           2.73021512244988    1.68573159178822   -1.13446345387866
H           1.44510516877162    1.98996577535395   -0.33149292482317
H           1.89850946445419    0.21129009910817    0.04669585806240
N          -2.44291835076558    0.35530997397328    0.39507628326532
H          -1.59937240668262    0.93694203244563    0.06923467417605
H          -3.33165164932565    0.73925555905828    0.09461097196498
H          -2.17617887823370   -0.52949325115744   -0.10162621050924
H          -2.39620464371355    0.17998040197509    1.43328590319791
