    23
        -45.37141689  Gyration_radius:  2.27806978441 Dipole_moment: 7.142
 S           0.78947438985218    0.66316323177844   -0.85609164695793
O           0.82642442316755    0.59012798921337   -2.31796046235989
O           1.17646269100188   -0.81856262000481   -0.44650200141133
O           1.72478985018529    1.57407433888983   -0.25986889185495
O          -0.58096475994398    0.86613240660969   -0.38236840162778
O          -1.68073476597468   -1.46295508699339   -0.20020464940405
H          -1.25202046033324   -1.79465250457269    0.59728339775245
H          -1.46807358232929   -0.49757454882838   -0.19331818996796
O           1.04342422534070    1.22683331059506    2.31680740295038
H           0.26092967205625    1.81342999149937    2.31361619188122
H           1.47153346987484    1.40405874338799    1.45604717799368
O          -1.02217068474011    2.75658747220626    1.47525821597074
H          -0.65163232921387    3.55709539291823    1.09917765370809
H          -0.99454449558566    2.09029141408805    0.76058437480728
O           0.31552380970545   -1.22174098910450    1.97109804351185
H           0.89553857786144   -1.74745982169650    2.52534400211418
H           0.50528976176809   -0.26355495030530    2.22000234396529
H           0.89657346589791   -0.98714091792826    0.49245611406141
N          -0.46495555938840   -1.57560126653063   -2.53573562705137
H          -1.12305896570140   -1.59451345282301   -3.30908871059967
H          -0.97575191060053   -1.64613500688393   -1.59520963293753
H           0.21507982396185   -2.32559453332123   -2.61818620904901
H           0.09286334275850   -0.60630860186555   -2.51314049542838
