    23
        -45.36981340  Gyration_radius:  2.43831507015 Dipole_moment: 5.717
 S           0.74095623309179    0.35058079616772   -1.03818097686175
O           1.42615596383527    1.52399947288632   -0.51149694449292
O           0.74227575313232    0.24358449285339   -2.47350871311377
O           1.50872456042584   -0.88022633615770   -0.44452440463724
O          -0.63021899982690    0.27368960498909   -0.47768175693320
O          -0.17222984570320    1.19221245592852    3.40572941903315
H          -0.08501799575733    0.32438477705083    2.93472214408799
H          -0.87581349689343    1.07719226236275    4.04630247145866
O          -0.13073887091606   -0.93304787874307    1.84406671174060
H           0.72272787689994   -1.33656471101591    1.66264098994519
H          -0.41293392147317   -0.56714776437877    0.97917260441634
O          -1.37279829230533   -1.30942472380808   -2.64433192645035
H          -0.65929700491459   -0.66498408346401   -2.83625520792363
H          -1.76223704291083   -0.97402759740557   -1.83005369892863
O           0.61630142130791   -2.85658283863826   -1.85699251820697
H          -0.23006912659773   -2.44685766678370   -2.17189376608414
H           1.17662724930787   -2.92229172023980   -2.63361552882246
H           1.21066433828154   -1.68962114030600   -0.95324770442082
N          -0.38511457913017    2.36442398875165    1.02870101868001
H          -0.92911346302324    1.63829021819819    0.51080448956505
H          -0.29539611429429    2.07476480581453    2.03682679366964
H           0.55081747255359    2.21573400483860    0.50524241077126
H          -0.75427213504433    3.30191956104922    0.91757408341358
