    23
        -45.37811681  Gyration_radius:  2.37689099254 Dipole_moment: 3.951
 S           0.86281266492705    0.25069016448479    0.18052325674758
O           0.19678933802466    1.55091654833538    0.09768439159805
O           2.11781114703942    0.39618709777628    1.07170935056635
O          -0.03115279645479   -0.73645733152025    0.81840204103352
O           1.30803785145919   -0.21715396597185   -1.11502456206782
O          -1.16814103122644    1.19479677298443    2.33739811185573
H          -0.87281409731116    1.59261899854876    1.49620715143613
H          -1.05598811151050    0.24809053641716    2.17308161374517
O          -1.05763472349419    1.03857399894075   -2.14979865988906
H          -0.31516874535122    0.93494217061327   -2.75169164478049
H          -0.65018181809702    1.38389947656636   -1.32085828116909
O           0.67878460477182   -2.47170624788444   -2.30587521847857
H           1.05268745794258   -1.62951074011172   -1.95245488031750
H           1.20766920507386   -3.17193556956330   -1.92014668020444
O           1.28826241290434    1.61423511355180    3.21320009160689
H           0.31320676524756    1.49338747277965    3.08793221978298
H           1.85296573589688    0.82164438611404    1.93669944718143
H           1.46131040828752    2.55016238872757    3.09025379038427
N          -1.48022946249705   -1.39206341624453   -1.20374901475451
H          -1.48809362364436   -0.44396587351625   -1.68158743478662
H          -0.83294951836052   -2.01502376961803   -1.74296998688926
H          -0.97937361177102   -1.20947403721714   -0.27061809598479
H          -2.40861006182959   -1.78285415422355   -1.08831700662031
