    23
        -45.37113776  Gyration_radius:  2.37012969735 Dipole_moment: 5.245
 S          -0.12215468714369    0.67190998861256    0.70112283819650
O           0.03492124784222    0.38997300427342   -0.84033100848022
O          -0.82267605343119   -0.50703428837173    1.23796809538283
O           1.19162513560049    0.84641858518132    1.26728789357036
O          -0.97925162193975    1.85074092527404    0.76286821431490
O          -2.25810466611509    0.13983991179726   -2.26035624792325
H          -1.35705498062671    0.15987581020832   -1.87909954696935
H          -2.25740146011732    0.77282053414899   -2.98045293065972
O           1.40211721130445   -1.95266082885643    1.50357146316534
H           0.49468216605581   -1.59277723513882    1.48586299171271
H           1.91512034714004   -1.26426386324416    1.93731799191261
O           3.46082891841894    0.69534164121497   -0.12754143596811
H           4.19681179034118    0.81713662688683    0.47386839374351
H           2.65042729555151    0.88721981172016    0.38760268726100
O           1.88400396862741   -1.30629062910638   -1.04171047275662
H           1.77641736559198   -1.75675301339720   -0.17099829093431
H           0.78014105076596   -0.31847997603620   -0.98477333195558
H           2.64434286883249   -0.70507434755936   -0.92972043743406
N          -2.99616461480388    0.42885762083087    0.28716080935788
H          -2.36194970802885   -0.29040621475433    0.73071081496841
H          -3.91704890443929    0.48559863386384    0.70708819873681
H          -2.34692403121756    1.27608457819860    0.47633092197262
H          -3.01270862822808    0.27192273426536   -0.74377761120072
