    23
        -45.37914063  Gyration_radius:  2.33118299254 Dipole_moment: 3.749
 S           0.41494189038267   -0.61339079037783    0.58300208897575
O           0.63780722334057   -0.14001680755243   -0.77755337004234
O           1.61673301486089   -0.05531863684302    1.44326086523058
O          -0.77273427399343    0.01822326241222    1.16624169028496
O           0.40168298144885   -2.05328591184559    0.69219894421265
O          -2.19219669940202   -1.60131459042383   -0.46970732715802
H          -1.87488233570680   -1.07144007837157    0.27841948719042
H          -1.59332780502342   -2.35272417755206   -0.49449790448228
O           1.24421180782759    2.37331064163702   -0.30320591821159
H           1.18537816490320    1.43991995645904   -0.60660643460056
H           1.68428424069733    2.32536210047957    0.54858240216873
O          -1.55693740561896    0.33642384651433   -2.26133234968661
H          -2.04556666444258   -0.39454363374438   -1.83424835482181
H          -0.62620267968880    0.11682645384429   -2.07264151462851
O           2.94009583949724   -2.32443998932366    1.25221315108619
H           3.05186577658572   -2.84324531586171    2.05213547044488
H           2.03246649448787   -2.50648603743728    0.92911332427122
H           2.30362392469547   -0.75712553867851    1.42862025874759
N          -1.39987798211007    2.06246800351558   -0.30900898719296
H          -2.13345952135119    2.72064686851043   -0.07255113194905
H          -1.59325398012748    1.51322423249549   -1.21154558831558
H          -0.45489924337277    2.50471961732616   -0.38325967813676
H          -1.26975275786750    1.30220654479401    0.42237088661030
