    23
        -45.37432793  Gyration_radius:  2.3263439732 Dipole_moment: 1.848
 S           0.72206969930106   -0.62923898386022   -0.68951459655289
O           1.28146526345953    0.26228967983006    0.32899316973856
O          -0.13659565598797    0.12532469305873   -1.60827772069782
O           1.90963198204396   -1.20622595278464   -1.52153435606714
O           0.03153421370279   -1.74874210484267   -0.08923376200301
O          -2.29538898583954   -0.10710191968810   -0.09706675649053
H          -2.37078676575842   -1.06429443700857   -0.04547324237253
H          -1.59791750173049    0.04666688020578   -0.77043446847915
O          -0.22914266433332    2.56502849983368    0.14445724334377
H           0.51309111563204    1.94531903142427    0.09591249979887
H          -0.71155381934587    2.44752547251647   -0.67618005263401
O          -0.41779672398689   -2.15483667224541    2.49646683845674
H           0.32744834386060   -2.63004691807924    2.86666642915227
H          -0.26897165625735   -2.13949587221602    1.52411782121970
O           1.89793715128098    0.96386393540137   -3.03230880693361
H           2.19956075328631   -0.46278886893406   -2.08998998231427
H           1.76512702848544    0.84053793660202   -3.97479741511896
H           1.01760679592713    0.88000539654522   -2.61205286974607
N          -0.73873900513978    0.43179952543843    1.98905151642655
H          -1.49763998725884    0.35389499624057    1.25376240240523
H          -0.84505331585584    1.27492728074897    2.54414567980790
H          -0.71922928516236   -0.45540071596420    2.53307827330659
H           0.16334303966747    0.46098912777968    1.43021213574279
