    23
        -45.37202077  Gyration_radius:  2.35752939291 Dipole_moment: 5.560
 S           0.03911288143674   -1.02860403482393    0.34689505034650
O          -0.89424812844994    0.23232496739453    0.18413944751746
O          -0.42437179320492   -1.65470901033650    1.57641407676624
O          -0.08530637880518   -1.83226409552421   -0.84143711159063
O           1.39698228559197   -0.47845819158278    0.52035835265959
O          -0.82740155509882    2.09731392935518    2.14445236167591
H          -0.60610004876214    2.92430837510107    1.71188326742644
H          -1.05671011773401    1.47059804353599    1.42968295613885
O          -1.55574585482160   -1.13996728904608   -2.95472418071454
H          -2.44992095222173   -1.45020912106695   -2.80582554940304
H          -1.01491869446870   -1.51490057194556   -2.22857671913823
O           1.87371834119149   -0.09734781991745   -2.07500766164922
H           1.86258660162940   -0.22300233111053   -1.10638864178221
H           1.61244953282560   -0.94922226970509   -2.43600423250904
O          -0.46451214667892    1.16469902624483   -2.11139767430123
H           0.47705531852739    0.89067550360110   -2.22472159806056
H          -0.97202063944120    0.50984513871738   -2.63341239011116
H          -0.73982547644956    0.65722212257643   -0.75246373596830
N           0.78638210883615    0.10818696851924    2.91254669335834
H           0.23384405073918    0.99233015124042    2.88528760309625
H           1.30229185077289   -0.02334668917233    3.77526557365396
H           0.13211298273673   -0.70825316310038    2.65270201198761
H           1.37454581185081    0.05278037098947    2.03033210064120
