    23
        -45.37914133  Gyration_radius:  2.33012064497 Dipole_moment: 3.731
 S           0.43003047088802    0.50355452836736    0.67405862176831
O           1.57369215964994    1.48245940244255    0.19457777956372
O           0.66627906995312   -0.76072849692306   -0.01210525309288
O           0.49337119286039    0.39320479682671    2.11251313737631
O          -0.80703140310279    1.13094958908388    0.19932878879286
O          -1.50760724656524   -2.23761076426851   -0.59418374091610
H          -1.96679503077092   -1.94283290638837    0.21683509660959
H          -0.57189019558738   -2.04953807915864   -0.39635030461084
O          -2.08754203196547   -0.78052797494356    1.62137875244390
H          -1.44753545647351   -0.89516732880200    2.32932342706761
H          -1.82236580554752    0.05005219618169    1.19600477029742
O           1.11602212659136    0.10956520082949   -2.45136749113167
H           1.53072719776429    0.96138209783680   -2.29643608614291
H           1.11909225015632   -0.33320850092182   -1.57350989792586
O           3.03435758046163    0.96968497696742    2.32560947005470
H           2.14464200114280    0.59883537760894    2.50475080042740
H           2.30305156063462    1.37662282508031    0.84359809670571
H           3.16449009103843    1.67915162318992    2.95909204352720
N          -1.50497547813985   -0.04432733851130   -2.01009238627767
H          -0.58469707287132   -0.01554665887542   -2.50644321914220
H          -1.35384630884173    0.56924692073102   -1.15542542292716
H          -2.28117531924867    0.26041350984181   -2.58620661538516
H          -1.64029436198467   -1.02563498625055   -1.59495037712640
