    23
        -45.37371611  Gyration_radius:  2.37572922236 Dipole_moment: 1.068
 S           0.69158736709497   -0.37072550933755    0.98427161972707
O           1.52858170997436   -1.06328729945429    0.03121441258296
O          -0.72981438789591   -0.62596320773126    0.72799765519089
O           1.01582736831659   -0.93727591245149    2.40477632865983
O           0.95157526233340    1.06955550965560    1.01468445678565
O          -2.69132403392890    1.08071190315844   -0.22448677509130
H          -2.13082045108614    0.50687247208815    0.32128883526364
H          -2.92233178497158    1.82639014115317    0.33041009650532
O           1.27983178893172    1.31933297346845   -1.59380339480762
H           1.18928926701470    1.40727312180588   -0.61943467359588
H           2.01761468458145    0.71391229834824   -1.71138667086650
O           0.75742472621785   -2.40568193349374   -2.14281846701777
H           0.67742934489183   -3.33423420709706   -1.92073927656610
H           1.14972564843085   -1.97464408219793   -1.35193922969518
O          -0.07704761986901    1.26806772655528    3.40991268999041
H           0.22238634201468    1.44778902606558    2.49390556643339
H           0.54557772795443   -0.32847652988986    3.00876809042145
H           0.47812383201754    1.79955984909644    3.98495728688887
N          -0.81632733038630   -0.28068813436156   -1.86762850989767
H          -0.46514447384725   -1.14631496119609   -2.31672034165051
H          -0.88752050191725   -0.48707547175364   -0.82846321552021
H          -0.06683944862890    0.46359324360381   -1.93451501128305
H          -1.71780503725477    0.05130899393099   -2.20025147210546
