    23
        -45.37524011  Gyration_radius:  2.44908891609 Dipole_moment: 4.107
 S          -0.17090235904221    0.03714640270756    1.33423569513130
O          -0.92654689599142    0.79694693528967    0.34555729976394
O           1.26381697096918    0.19130208572733    1.12938303671442
O          -0.46662558854401    0.65721293179594    2.74156336035913
O          -0.58117862535195   -1.36302450750409    1.37002723345780
O           1.29949522762237   -1.44712092691077   -2.46441844227037
H           0.36903022273952   -1.47432262507673   -2.11417388044805
H           1.71454245091045   -2.25210125187588   -2.14980756051818
O          -0.02260529884877    2.52437144274092   -1.38710025235476
H          -0.46477121532057    1.90601166936741   -0.75323434202712
H          -0.06536255637680    3.38945305832197   -0.97711678003340
O          -1.02723897432296   -1.43033117822628   -1.24406487670435
H          -1.36457362855488   -0.52747918183369   -1.20432499543238
H          -0.86525371397453   -1.64092294399710   -0.30365050926142
O          -2.60631356441735   -0.88854413669758    2.95539511163614
H          -2.62112700236843   -1.50606912271498    3.68998713360669
H          -1.35031172885064    0.30541755571353    2.97046373174258
H          -2.01520709352558   -1.27928472157112    2.27772290644219
N           2.00940689695224    0.81068925370027   -1.26240053831112
H           1.32954603415491    1.57019125492436   -1.50679224508350
H           1.78221109307606    0.55582808521209   -0.24377664181177
H           1.80919254795935   -0.05125378155508   -1.84014760306685
H           2.97077680117811    1.11588370246488   -1.36332683157992
