    23
        -45.36963111  Gyration_radius:  2.4718273627 Dipole_moment: 3.044
 S          -0.68806074763680    0.78341090795129   -0.36458408998351
O          -0.94774675330557    1.93421306057687   -1.19676664754202
O          -0.43972097053974   -0.43353398210932   -1.13925309816735
O           0.36813272892855    0.98910346527361    0.62470365383434
O          -1.98526409051130    0.50390331308944    0.49832405567713
O           1.64601310302193    0.99292861614318   -2.20523828962121
H           1.38743688477152    1.91609946407514   -2.17099244055029
H           0.81291358506086    0.50591440447668   -2.15280133282233
O           1.74753493850191   -2.56454953941230    1.89574966435435
H           0.92262362559470   -2.07790560458928    2.13596699689405
H           2.30562404641853   -2.53640248526502    2.67456292436961
O          -0.28597908054658   -0.91863622272160    2.36682138032018
H          -0.04905387030781   -0.12400143526125    1.84639799515925
H          -1.20877917859283   -1.07664301961721    2.15579169632456
O          -3.55059377859274    1.61988432755972   -1.32244312380771
H          -2.62750048861468    1.86475991642133   -1.54280878991844
H          -2.74831131421692    0.74738152085373   -0.06825620514706
H          -3.98964460767510    2.43346097086845   -1.06401776024954
N           1.91492602768088   -0.93952247539593   -0.19613202031409
H           1.68122354522659   -0.02492937786036    0.25814557168475
H           2.04612294128802   -1.68021390832989    0.53736267459288
H           1.00719582242152   -1.08479969901199   -0.71549883149727
H           2.68090765163085   -0.82992222770713   -0.85503396358666
