    23
        -45.37283346  Gyration_radius:  2.32873655233 Dipole_moment: 5.575
 S           0.13080654723918    0.61772653906883    0.95558984456228
O           0.89465241672891   -0.02528721285076   -0.26020700884075
O          -0.97540455832682   -0.33717700058692    1.23260677728179
O           1.09694725324123    0.62831843646016    2.02686329678415
O          -0.37888900937287    1.90415294260387    0.55567768049489
O          -0.13920127871347    2.85263483072177   -1.91739478163506
H           0.65369062602847    3.38824601284591   -1.95988912379319
H          -0.25264228602881    2.61116251114256   -0.97363963156340
O          -2.68105707763585    0.59194722447922   -0.59642779657188
H          -2.19549856204374    0.22515871575677    0.16670476321415
H          -2.64029492238072    1.54510807638323   -0.47832711426282
O           2.52490427968777   -1.45488428400261    1.55122539426353
H           2.06722960417764   -0.62682997031730    1.86932127445401
H           2.99793207236680   -1.17616283507522    0.76293941822338
O          -0.63462540428034    0.22932508756832   -2.26221826213625
H           0.31068005899657    0.05574952544251   -1.09893962688978
H          -1.51140686199110    0.25543855096781   -1.81134827493990
H          -0.44523645970021    1.16588607941760   -2.46529936102946
N           0.23125150524493   -2.53286169810194    0.93422174052803
H          -0.37683063222693   -1.61761081463911    1.10092852234112
H          -0.07283937345550   -3.28806610931912    1.54062584132098
H           0.16162023022807   -2.79871677335528   -0.04376488671151
H           1.23421183220939   -2.21325782460331    1.17075130490668
