    23
        -45.37093459  Gyration_radius:  2.40151358779 Dipole_moment: 4.554
 S           1.14210440892899   -0.15399982646794   -0.18801729426259
O           2.10423206348874    0.35873545273822   -1.13221524656049
O           0.63424372242633    1.10088432422479    0.61530439843211
O          -0.07682751628015   -0.64099685518785   -0.89541008388313
O           1.63560973319819   -1.13491389079583    0.74068536676682
O           1.37124952132536    2.10400175408310   -2.88621856808842
H           1.61870012991743    1.72452682491036   -3.73149790618793
H           1.78173079100120    1.50925749956032   -2.19974579002054
O          -1.96210283724638   -1.60928535240727    0.75686647926868
H          -1.33007387302678   -1.38026458785624    0.04908597115351
H          -1.51318087121636   -2.28526721630176    1.28358896391027
O           0.12579259821384   -2.47023037283144    2.42661072802042
H           0.63440251954713   -3.19962391588121    2.78207169810427
H           0.72097219624941   -2.01735084363749    1.78581286087659
O          -0.90881501842889    0.15749041479625    2.41988207423654
H          -1.51231599459154   -0.38430148410367    1.85251549859181
H          -0.41416797986442   -0.50688240632265    2.91677362458228
H           0.07155867176381    0.76375235107091    1.38600614854314
N          -0.86526759643237    1.63922095133333   -1.61232898172498
H          -0.08480599196109    1.94915553437315   -2.26492057065090
H          -0.75854606575424    2.13578991162987   -0.72698515757352
H          -1.79290970993783    1.75925392846818   -2.00615131443240
H          -0.62158291094000    0.58104783522533   -1.37171290907468
