    23
        -45.36135116  Gyration_radius:  2.46925109668 Dipole_moment: 8.979
 S           1.10637269757973    0.42116085837331   -0.56394332404103
O           0.13954208373855    0.08266154301615   -1.73431112102181
O           2.21089833224453    1.13342019446164   -1.19589449920356
O           0.39515924635347    1.16176023481157    0.45314473974341
O           1.56860261447572   -0.89313509174853   -0.05770818848782
O          -2.32131713753586    1.79133279959677    0.33708105065704
H          -1.35544256426646    1.86777888810505    0.33830439157206
H          -2.56331698202135    1.58509266624548    1.25882904968873
O          -2.38396689884127    0.84643811173869    2.93335382089702
H          -1.77669986241910    1.38019275089462    3.44896202251938
H          -1.89261160962658    0.05397836027207    2.67147817476953
O          -0.60471460655760   -0.93815616087668    1.73239047639833
H           0.08456286294535   -1.60133834328097    1.64631013231564
H          -0.19935245452381   -0.12262636780712    1.36799807250248
O          -2.02213271177284   -0.64582703299789   -0.63275512060250
H          -0.76577196949096   -0.24172038255874   -1.36591295421880
H          -1.70691555739357   -1.00702495211877    0.21437750480256
H          -2.35621874499222    0.25884304881079   -0.40181582842922
N           2.92976774427518   -1.06955184250727   -2.14024659196912
H           2.38750664727098   -1.30316298145337   -1.20867614506980
H           2.81739748192906    0.00395246881941   -1.98654480593997
H           3.89359769609938   -1.38570092507666   -2.15555556914715
H           2.41505370242507   -1.37836785507907   -2.95886527763083
