    23
        -45.36919978  Gyration_radius:  2.39089618427 Dipole_moment: 6.963
 S          -0.35778105205266   -0.12528539887044    1.07467423758084
O           0.98416213757866   -0.28154927454334    0.26159650761000
O          -0.36062681758588   -1.27595436906424    1.97607080672157
O          -0.35711954048608    1.15544061050227    1.72031658052357
O          -1.42572840826043   -0.26290548071551    0.06470576687736
O          -1.38206375553922    1.96070545177222   -1.36895122174809
H          -1.48975407348210    1.19542715395427   -0.76310216873044
H          -1.86330876481794    1.74013965894837   -2.16813831595890
O           1.08402713968673    3.33113958059890    1.19266284718134
H           0.59993801273999    2.55594197588231    1.54450343932812
H           0.42548998745855    4.02324948177979    1.10430299878789
O           1.39448888723771   -2.62951723173700   -1.00897420115848
H           2.22884434552356   -3.00625987351055   -0.72435212988102
H           1.36593682951205   -1.72293005401588   -0.63893296366046
O           1.27589094839961    1.85997962843510   -1.02136747939029
H           1.41224614465109    2.49770045053704   -0.28304769393162
H           1.15615709018473    0.59117355663195   -0.27846420531801
H           0.34955902450297    2.00965348601864   -1.30717613008496
N          -1.02917828572161   -2.78769067513469    0.10183989995000
H          -1.43544805925936   -1.88156091773667   -0.24938969541663
H          -1.69136623700934   -3.55393717092032    0.13951935100162
H          -0.16570198704690   -3.00439700670090   -0.43975226342295
H          -0.71866357601698   -2.38856358234161    1.07145603310787
