    23
        -45.37423926  Gyration_radius:  2.2444533929 Dipole_moment: 5.563
 S           0.55436067524529   -0.83502304589955   -1.03045423384870
O          -0.43008086763038    0.25814144887278   -1.02846931139737
O           0.77191078560858   -1.33235183987758    0.31623917561861
O          -0.04275865931293   -1.99460996927348   -1.89668885774767
O           1.78123693120674   -0.41069190406921   -1.68102153841737
O           1.53973841563033    0.80646687515678    1.72238466948335
H           1.43942499149124   -0.10975023694343    1.38932089076716
H           0.59749021127020    1.10346021235953    1.85353958442579
O          -1.00476768443943    1.30234632372889    1.41915957028128
H          -0.89843178543003    1.07663508079079    0.47805368250567
H          -1.36588716767326    0.48148295263679    1.81089935873561
O          -1.52768951940579   -1.32775063666997    1.77850636527688
H          -2.16019746236783   -1.57344576683567    1.09486018951958
H          -0.65099691760313   -1.48208991795249    1.38325231140310
O          -2.46885374260907   -1.36447313335487   -0.93102338848993
H          -1.86393170259832   -0.58837020246530   -0.93581914308470
H          -3.20025840329083   -1.15207907753136   -1.51407796586625
H          -0.96254617582459   -2.10014384434573   -1.59721018862505
N           1.99584416093714    1.88857439627934   -0.54162136465000
H           2.84460625371877    2.42910356299837   -0.67431410255916
H           1.88016998213478    1.51122042123220    0.50568999357854
H           1.17155028186789    2.42662806814598   -0.79580882309208
H           2.00006739907412    0.98672024301556   -1.12539688381756
