    23
        -45.35875783  Gyration_radius:  2.58965994445 Dipole_moment: 5.418
 S          -0.55713408919423    0.06327729257852   -0.47402717939914
O           0.91232469069657   -0.00478418487622   -0.43616127874455
O          -1.03874194420355    0.83938860441638    0.77618196126622
O          -1.03740353900032    0.78172892126937   -1.63155870010295
O          -1.10734415186682   -1.30081245393625   -0.39857228877459
O           2.30665275163276    0.63293005782791    1.72051973020742
H           3.06930038065043    0.05347038972933    1.69386468374272
H           1.82563382948959    0.49293524699318    0.87450234230774
O          -0.49426558758872   -0.47361426100172   -3.85280971684053
H          -1.34368102621423   -0.62129037818674   -4.27286396431814
H          -0.68278766803756    0.12772170236360   -3.08576541238490
O          -1.32229184766108    2.56554533129822    3.05504675562444
H          -2.25524206290524    2.49802879926955    3.26657346332383
H          -1.24794235694569    2.40476261751432    2.10625924679583
O           0.00809241633931    0.13131449542080    2.98918051699333
H           0.93593424844417    0.29907483651489    2.71534496935114
H          -0.29710956494505    0.95607985557725    3.40231545912158
H          -0.65669334031094    0.40696940884766    1.61823168117177
N           0.62883860429846   -2.02629802032498   -2.04481895237956
H           0.27675965870802   -1.60090209416637   -2.94221818377153
H          -0.21885370252799   -1.98196639654452   -1.34514031705471
H           1.07209367855554   -2.93107934259396   -2.15765391495066
H           1.22386060259045   -1.31248040798297   -1.57643090119165
