    23
        -45.37691826  Gyration_radius:  2.38482178546 Dipole_moment: 4.471
 S          -0.48956628646551   -0.68073978369124   -0.36605152186070
O          -1.73482201912094   -1.27000232729868   -0.77798505433009
O          -0.68651127022547    0.54257467631208    0.43833059326210
O           0.42308884844971   -1.59031914058008    0.31535327582835
O           0.30204914769032   -0.21804674804877   -1.64346441631980
O          -3.08058778033623    0.99021289650844   -0.82349602702964
H          -2.50477982679759    1.36274525819901   -0.14571436978851
H          -2.86336861187812    0.03616779435931   -0.79239327136396
O           0.90689355039184   -1.37847490400780    2.91929180217885
H           0.73783924241291   -1.64454848416810    1.98831077515708
H           0.09404799421872   -1.55388119007178    3.39572404321061
O           2.73534793049703   -0.46943615258024   -0.31297914898539
H           2.00335035238325   -1.09972716260822   -0.13547409195355
H           2.55322434591721   -0.14374516972601   -1.19905399362160
O          -1.53144553955718    1.05493021037520   -2.95503894905181
H          -1.93683818982093    0.43172678201598   -3.56223069884787
H          -2.19129540465110    1.18495060186101   -2.22454344537955
H          -0.35170366045354    0.29773402945985   -2.19388361027836
N           1.54689554432113    0.86816753279126    1.63590517645744
H           0.57985429429435    0.86298224960454    1.14404071297913
H           2.22202895754439    0.49871597005253    0.91445658542209
H           1.80795239690009    1.77715597706493    2.00040502098338
H           1.45834600428620    0.14085706418246    2.38049059333254
