    23
        -45.37423926  Gyration_radius:  2.24453557597 Dipole_moment: 5.564
 S           0.67408522894860   -0.33490221233474   -1.22455435172501
O           0.33392951468932   -0.07912789894422   -2.73128122641597
O           2.07808620575904   -0.70072400117766   -1.16497600336092
O           0.44165296141382    0.92729546890050   -0.50565598710738
O          -0.20322944716019   -1.37891309359402   -0.72591334132725
O          -2.66304229395920   -0.40575138529228   -0.07248555293239
H          -2.77243453576042    0.25056171343465   -0.76900055882854
H          -1.88582196550403   -0.93050601048646   -0.33552694787184
O           0.31510397938951   -1.51906418524679    1.89211611742168
H          -0.28723283092823   -0.75004764616707    2.08929322984095
H           0.08336226414799   -1.75156502677541    0.96873616387427
O          -1.03211973754366    0.71354214061776    1.77342963314174
H          -0.47293233415831    0.96743271692253    1.01796557191729
H          -1.84700487777457    0.37493996425273    1.35039267809624
O          -1.65711082176812    1.53602035401529   -1.92817519470946
H          -0.51796029585911    0.39090092225965   -2.73300809487985
H          -0.93065346056584    1.49254240918668   -1.26581941281179
H          -1.71420531828122    2.44767960529570   -2.22076372310292
N           2.44879500751996   -0.23517517410140    1.34016007260123
H           2.26087608577454    0.75233106819308    1.49222799002829
H           1.57619412659541   -0.83563399678533    1.70100619078740
H           2.44721877586915   -0.41714943311739    0.28118464525987
H           3.32444377915528   -0.51468629905661    1.77064810210260
