    23
        -45.37524003  Gyration_radius:  2.44916444975 Dipole_moment: 4.108
 S           0.28986565460290   -0.44568566979305    1.23505696152332
O          -0.52901063283103    0.71436318926003    0.90407028468731
O          -0.14849071862871   -1.62452329172813    0.49838839222136
O           1.71237742908337   -0.17361524778459    1.05474670566174
O           0.05548679796054   -0.78016488501697    2.74690482837339
O           1.27468354510198    1.39806920817643   -1.03725629173852
H           1.65941183151970    0.81847898326611   -0.35103286153652
H           0.47385233970759    1.72734609890493   -0.61187367267129
O           0.61848568990501   -0.12469218725111   -3.07522997147142
H           1.38971629064649   -0.68031073838877   -3.20053824294567
H           0.88270250748364    0.54457484411116   -2.38861728425063
O          -2.72952142832270    0.78008235250443   -0.49516345001525
H          -3.46128026180066    0.68281213836650    0.11598553415271
H          -1.91884688207789    0.85604206197864    0.06751682657775
O           1.95524149188343    0.94234257491426    3.40741260380989
H           2.07930352436052    0.69934025152324    2.46568371752403
H           0.59616111318088   -0.11593646163152    3.21972318705669
H           2.71244986802642    0.58933223126572    3.87988424515267
N          -1.40165234046562   -1.17838365505558   -1.71305107551366
H          -2.06999491099988   -0.42230155915995   -1.42975347930024
H          -0.89181164037600   -1.44827228515940   -0.80673577491315
H          -1.88017642514318   -1.97357236435308   -2.12081797922145
H          -0.66895281280768   -0.78532558895284   -2.36530320316651
