    23
        -45.37925349  Gyration_radius:  2.28810238697 Dipole_moment: 6.583
 S           0.05743266879912   -1.42187837987806   -0.33184935155365
O          -0.61814066989596   -2.30773732651218   -1.41277783050706
O           0.76785649178388   -2.27140130542049    0.58853226097011
O           0.91251551555850   -0.45035783907870   -1.00373186038142
O          -1.04330103688719   -0.70491551095421    0.36474556450716
O           2.19430558671006   -0.93017836203491    2.31408086788002
H           1.77706932740288   -1.47951236319139    1.60432885003607
H           2.36062202353469   -1.53247053526401    3.04154069358787
O          -1.91985774816559    1.27295767267481   -1.08813513096278
H          -1.64078896381356    0.50488953425160   -0.52736455910754
H          -2.87098609587138    1.34292062671486   -0.99545365313040
O           0.67814674742968    2.09115452915048   -0.31061437706119
H           0.96223316474150    1.21844866737710   -0.66360175947969
H          -0.21085928374732    2.21131952128446   -0.67346127318953
O          -0.76583589124521   -0.28608039980497   -3.05700085855401
H          -1.31913242269183    0.37735211490346   -2.61001010530778
H           0.11852557443268   -0.15995351503324   -2.67686226198627
H          -0.80361999763986   -1.68177321249290   -2.15820788696578
N           0.26998779770428    0.86273811657540    1.95895496121260
H           1.10993370376400    0.29738806098765    2.24110409496796
H          -0.16732077265557    1.31994421894491    2.75135662363245
H           0.53363169732997    1.54533775496439    1.18072863887396
H          -0.38241742654169    0.18180792179697    1.46369835252393
