    23
        -45.37600617  Gyration_radius:  2.46582405835 Dipole_moment: 3.831
 S           0.13356576581376   -1.33328023173973   -0.26821345397455
O           0.91182732689054   -2.66449479989711    0.00676077804953
O           1.12147827066230   -0.25094825396722   -0.29655501225296
O          -0.55869054287704   -1.46781013505646   -1.53844468226749
O          -0.77606115500247   -1.16455467496939    0.85690090954793
O           1.96455860369261    1.34342926181631    1.58984222370653
H           2.31733960574952    2.10092096548056    1.11892403859001
H           1.79076532214087    0.65871299611569    0.89848906541796
O          -0.67461470000661    1.26116049995988   -1.51361498252127
H           0.15049566115007    0.91700881914550   -1.12256781918026
H          -1.08171146414246    0.45638166226683   -1.85942729423356
O          -2.00015555393269    2.48525739477126    0.41675813342726
H          -1.50226149695122    2.13315284843694   -0.36520079070000
H          -2.91838027518819    2.25569376366907    0.26465305183261
O           1.31939532435218   -2.94599894946293   -2.59776672968471
H           0.93605487214266   -3.73006082089144   -2.99715371732346
H           0.57969686172071   -2.31534831117675   -2.46472953507546
H           1.30241884553372   -2.89931263002082   -0.85924023748863
N          -0.61151104187595    1.04832074191729    2.17777241276427
H          -0.91334974248084    1.00222064576990    3.14427616468417
H           0.40389924588768    1.30969416435110    2.09911518341079
H          -0.69632512252205    0.08856100269314    1.70108037467086
H          -1.19843462076895    1.71129403080110    1.60834192859902
