    23
        -45.37600590  Gyration_radius:  2.46652088539 Dipole_moment: 3.836
 S          -1.00735547730139   -0.90925259859932    0.15793920111087
O          -1.64810832073037   -2.03305410580567    1.04097925082910
O           0.09736885801927   -1.54120836138442   -0.55077333130421
O          -2.03176312599430   -0.39730739581878   -0.73629299133813
O          -0.50821901340976    0.12625360872037    1.06715367871427
O          -0.40984976397026    1.78394449361159   -0.99170250707829
H          -0.38515862729201    1.40464134173813   -0.09311674915453
H          -1.11151710916032    1.26569041686072   -1.40675355276952
O           2.00454489981964    1.49581022048431   -2.02608509856742
H           1.11435161249434    1.72374918999775   -1.65346739204698
H           1.85080703135320    1.26658954091757   -2.94412028110568
O           1.84790436706960    0.46777565592492    2.13658255639773
H           1.87110030369796    1.39903306167795    2.36503895763108
H           0.91126702673704    0.28021769068541    1.88247875930945
O          -3.95734734440011   -0.73161965170176    0.99971363757157
H          -3.40010061578826   -0.39983715248952    0.26351847656354
H          -4.69138089655357   -1.19749748717720    0.59304292073299
H          -2.52713368327748   -1.67810822828240    1.28408251917193
N           2.43195604085464   -0.47101684948987   -0.28137981689629
H           3.21636501285752   -1.09997810327742   -0.40980263084393
H           1.49813478059594   -0.99116121152990   -0.39551231430352
H           2.40995757835522   -0.06958810813755    0.69013719166426
H           2.42417645596484    0.30592401313366   -0.99166047427502
