    23
        -45.37600609  Gyration_radius:  2.46595715928 Dipole_moment: 3.835
 S           0.88988518124475   -0.87283786132223    0.55862254061120
O           1.31640024160193   -1.69684622812806    1.82045356959904
O          -0.19023098182846   -1.62737502185508   -0.06260248356038
O           0.40286904386046    0.42583863569683    1.03236083725383
O           2.05024467628523   -0.73375888986170   -0.30460847531014
O           0.68860644570105    1.35032859729813   -1.42895526128203
H           0.53222669294443    1.27418530593157   -0.46883604026037
H           1.37671592897995    0.68760787884719   -1.57153450499290
O          -2.00673370615165    1.23407753895066    1.62542679039591
H          -1.96121039553247    2.18907599117663    1.54855492203387
H          -1.07185209436795    0.91843998341230    1.56699738887887
O          -1.61931024156239    0.89385223063700   -2.63237716116437
H          -0.75575485580112    1.17464483958494   -2.23403223463011
H          -1.39193603817330    0.37493271033210   -3.40559151904580
O           3.73318457892711   -0.61457896602358    1.69243401537987
H           2.19404681403470   -1.33605780478027    2.05975003305189
H           4.45746612925461   -1.22813821318978    1.55034265645036
H           3.29439295168639   -0.50060851315687    0.82235276340364
N          -2.42362211842686   -0.38717348501463   -0.44002161851790
H          -3.24885190379218   -0.97485684593704   -0.47070779469284
H          -2.26341263288916    0.12242551139143   -1.34715974879193
H          -2.46388561834191    0.29967845967189    0.35509705815003
H          -1.53923809772449   -0.97285584371643   -0.26596574294031
