    23
        -45.37691823  Gyration_radius:  2.384827056 Dipole_moment: 4.472
 S           0.47724163499578   -0.50469660528448    0.59552062156507
O           0.57033448381802   -1.51164374979653    1.61778101139222
O           1.52059069041353   -0.56470154614352   -0.42056450547189
O          -0.85505779019354   -0.47357162208371   -0.04190450075731
O           0.65734836220886    0.91047766595809    1.25681360396746
O          -1.98111224089553   -1.45886999148380    2.25745233472645
H          -1.05142201360923   -1.74920516492666    2.15873263760557
H          -2.21412191493248   -1.18013649627699    1.36427853505329
O           1.61082039578925    1.98210110046111   -1.13003321073065
H           1.42920497349856    2.41823271964931   -0.29267266059178
H           1.83106413904807    1.05946161801596   -0.87543995763825
O           0.99532242313676   -1.34833530181380   -2.90433709316990
H           1.35343428645868   -1.15260024028847   -2.01014314469816
H           0.71714808603205   -2.26517306099224   -2.88242152398979
O          -0.95924758337152    0.74878432304498    3.27249946021750
H          -1.49768364559931   -0.03439255074882    2.98503520645003
H          -0.44891442602738    0.44885184588611    4.02814710319624
H           0.04315340489388    0.92068323430631    2.04362587803728
N          -0.46827141163831    0.77662378295103   -2.23632230488858
H          -0.76174813438453    0.28495958712375   -1.31476095416750
H           0.28711781668551    1.45667947800609   -1.95411131077252
H          -0.01332218933307    0.02044197555824   -2.79530581475673
H          -1.24187934699195    1.21602900887825   -2.72186944057078
