    23
        -45.37600594  Gyration_radius:  2.46632579039 Dipole_moment: 3.838
 S           0.07788024396392   -1.36177634146497   -0.06004268496121
O          -0.03960597419250   -2.65358814048702   -0.93800870079030
O          -0.06758767497809   -1.74683597262586    1.33330021329852
O           1.38726701103359   -0.79674463534864   -0.35690983647999
O          -0.98482742659168   -0.44775146656749   -0.48826506530348
O          -0.97424627412060    1.47656570385820   -2.25124024236134
H          -1.71021220184788    2.03593262261693   -1.99548059633759
H          -1.05847799198216    0.65943544810743   -1.70141672784488
O          -0.64925352642738    0.88567341364672    1.77094500083016
H          -0.98765140454023    0.56459026234196    0.91391306702433
H          -0.32395782666662    0.07051963867306    2.17428920289458
O           1.17448030874097    2.72486715498805    1.24597572626517
H           1.86557476805328    2.57372045738385    1.89297322231817
H           0.43019980603595    2.12219591007326    1.50285042190721
O          -1.76166155852615   -3.66631534492319    0.80492541335248
H          -1.26764825133402   -2.93971102398865    1.24150418784688
H          -0.77617596597615   -3.15534399645545   -0.53375080421252
H          -1.48670885252838   -4.47718438028707    1.23865323351963
N           1.45096901732162    1.65126872913081   -1.17609094482924
H           0.54533849478777    1.76201209053696   -1.69870009127948
H           2.24855707093082    1.89773190436510   -1.75099929931003
H           1.41921703201632    2.20433536831386   -0.28090585948817
H           1.48853119678773    0.61640259809093   -0.88751885606855
