    23
        -45.36444152  Gyration_radius:  2.2804031289 Dipole_moment: 9.318
 S           0.39327903249854    0.20087940678296   -0.61611183049903
O           0.02689715552968   -0.89419469840812    0.42074813487101
O           1.80221434525383    0.55502004819424   -0.31911394464994
O           0.31453775996980   -0.50252203179306   -1.90399161892666
O          -0.48650970293367    1.32867876217773   -0.50580214137967
O          -2.32828809076259   -1.15197609341331   -1.07107669505373
H          -1.59041343836479   -0.82035255595218   -1.59737525829934
H          -1.92409619511494   -1.69792648336791   -0.39074659459315
O          -2.84592323427529    0.96457522819041    0.73617646411741
H          -3.10805105778025    0.19584884012249    0.20890005997239
H          -2.12488583950580    1.35544384379550    0.21431045699550
O           0.88418184902930    2.11218439648770    1.76623381702485
H           0.31630155810464    2.67296812084905    1.22893382414863
H           1.40011586902439    1.60242570196502    1.12210394474518
O          -0.93512421770813    0.22101504150678    2.42761729594884
H          -1.77014756193084    0.53573504218211    1.99754741972043
H          -0.36090446832571   -0.48518231124649    1.31502482941645
H          -0.32298439087765    0.98688790026348    2.44888706036616
N           2.58508533132989   -1.48802695155289   -1.51202050559720
H           2.63503965955797   -2.34560690707767   -0.97172625883356
H           1.58983823943543   -1.31170898453264   -1.91445758122995
H           2.53325892966335   -0.59290400706569   -0.87038610202025
H           3.31657846818953   -1.44126130811223   -2.21367477621857
