    23
        -45.38058041  Gyration_radius:  2.27292366758 Dipole_moment: 2.306
 S           0.20976012385231    1.46329921128527   -0.21531071006750
O          -1.14269823432707    0.91421119009114   -0.37840767566972
O           0.52183376427560    2.30325311351145   -1.49962069066778
O           0.31540132638079    2.33772941486390    0.92026512050205
O           1.18366106302357    0.36375150750241   -0.17195583491910
O          -1.11820217114308   -1.36358474247959   -1.83169753180051
H          -1.28748438792310   -0.51001824070410   -1.38870226525745
H          -0.47994992255751   -1.15900693660813   -2.52432858512908
O           0.40572335538537    0.84505217730903    3.06610588392199
H           1.30912086840307    0.52195773023377    3.07773515509345
H           0.38306321912374    1.53486190488453    2.35962164477497
O           0.28144745112408   -2.14242980982924    0.30779991613919
H          -0.24775629205336   -2.14981222914039   -0.52211361645598
H           0.85321136922412   -1.35893362354623    0.20270262234153
O           1.20070447628585    0.00421670565124   -2.73591546959434
H           1.32361634677783   -0.02601758603725   -1.75706700890782
H           0.64064605600942    1.64742578953174   -2.20670474513460
H           2.07439835702416   -0.05497541810574   -3.12682196040597
N          -1.31723177558381   -0.64886328499009    1.71193858847217
H          -1.45360963151308    0.03207203286388    0.91467083462594
H          -2.19859100816684   -0.96371630544134    2.10193495417191
H          -0.73927248693397   -1.44229121493722    1.27589533275435
H          -0.71779188667577   -0.14818139593004    2.41997604119876
