    23
        -45.37093080  Gyration_radius:  2.33575448202 Dipole_moment: 6.802
 S           0.60022930078066   -0.83514465538346    0.62050166816315
O           1.20522279790344   -0.41468527722129    1.96192257973883
O           1.18075150145592   -0.01223268450869   -0.45226117958005
O           0.91420576138900   -2.24302630399779    0.41304059586131
O          -0.85195358011179   -0.61825109926164    0.66514915794761
O          -1.79829869347663   -1.64107780690625   -1.55879719867166
H          -2.35948270204671   -2.37097271193759   -1.29024619340542
H          -1.52023690025787   -1.19874929278066   -0.71781982389228
O          -1.65951624421287    1.84946419736052    1.07875335688756
H          -2.58840472596617    1.81715944958590    1.31051610204212
H          -1.39094197723612    0.91931894981856    0.89805097982340
O           0.84402836814405    2.64865895203429   -0.28537997251128
H           1.04719123713031    1.71014696010828   -0.46135346175182
H          -0.11731754704073    2.70126161316760   -0.24301970762545
O           0.77290715906608    2.06701444329996    2.30738989513016
H          -0.19558284799425    2.11337854308018    2.23393753266594
H           1.06850199927159    0.58629827752994    2.14201273666270
H           1.07775343068642    2.45434956817242    1.45504254686172
N           0.76936012627098   -1.93392865157677   -2.08316657547594
H           1.26519011855107   -2.33809184278166   -2.86977282627558
H           1.07392029562513   -0.96292145012182   -1.81469968093685
H          -0.27657264241578   -1.90610127439776   -2.18533563285841
H           0.93904579450095   -2.39186790329284   -1.12446487881024
