    23
        -45.36884583  Gyration_radius:  2.38076243916 Dipole_moment: 7.371
 S           0.36030251441506   -0.24419384411710   -1.15822482446360
O          -0.82958501526762   -0.97340592246254   -0.66547495535930
O           0.50512409528341    0.97905864152976   -0.17157655776409
O           1.55817508713582   -1.03026968760509   -1.09411859411596
O           0.07673135644102    0.37350158437903   -2.44762742840591
O          -0.12907511801341   -2.21791398148662    1.56016225839393
H          -0.92974740768873   -2.62065049981585    1.89928688244740
H          -0.35236472851288   -1.86374090719477    0.67188629780251
O          -1.53203544231685    2.73703889819965    0.08985658987510
H          -0.66914844139791    2.28514137262847    0.00347430337440
H          -1.66807741946048    2.87471371635889    1.02893576291464
O           3.36045378570337   -1.08327185447077    0.86932395149810
H           3.43458896645141   -2.01642307119453    1.07961232291838
H           2.82316558667830   -1.04429079599123    0.05111341443529
O           1.25386638377870    0.03692047840834    2.04642686818850
H           0.82728872964736    0.63516465090815    0.74910363606137
H           0.73481305241154   -0.79202957938023    2.08002329745631
H           2.15990532636539   -0.25659878218223    1.79376536077595
N          -2.26152830154831    0.86767757217963   -1.68908933757623
H          -2.25621493884016    1.69311449906830   -1.05595766115621
H          -2.03607901107075   -0.00239927197571   -1.13040857880792
H          -3.09824252548119    0.80019357008527   -2.25722463499107
H          -1.33231652479287    0.86266321417611   -2.25326840325303
