    23
        -45.37611810  Gyration_radius:  2.46434513664 Dipole_moment: 3.229
 S          -0.22953590510422    1.21852786036696   -0.50288816437823
O           1.12265230248660    0.98090450380614   -0.01359217599587
O          -1.21877353538051    0.65173695048865    0.41295188362602
O          -0.42365832881388    2.77072650700899   -0.50452341410822
O          -0.43308790020050    0.74086793162918   -1.86390555817944
O           1.25685930299123   -1.28947848573784   -1.40436917237222
H           1.57223800432040   -0.55882083789198   -0.84661263523148
H           0.57214952567175   -0.84390100081654   -1.92814349946510
O           1.96344447096053    0.21631501786639    2.35003567504999
H           2.84315165986615   -0.13092650718139    2.19088040707886
H           1.69742607177746    0.66674470618299    1.51394955118405
O           0.15086739384624   -3.04002474753292    0.22469979034585
H           0.64924303901799   -2.46450695386036   -0.41403172790506
H          -0.59126274342264   -3.39280967322235   -0.26895875955205
O          -2.30074619539484    2.50434703520656   -2.35684368361795
H          -2.11692898229031    2.93807787732737   -3.19323199338796
H          -1.75624598812790    1.68885559736002   -2.34386924769092
H          -1.22205948630656    2.90879572360184   -1.05271641800930
N          -0.31500462202831   -1.13367485392371    2.02851742363169
H           0.60523153894531   -0.73442517130948    2.33344498913252
H          -0.91372664165464   -1.33905442806335    2.82024262487696
H          -0.75641450866151   -0.37838576451078    1.39610205755500
H          -0.15581847223269   -1.97989129689339    1.42286203747703
