    23
        -45.37611811  Gyration_radius:  2.46447689798 Dipole_moment: 3.226
 S          -0.65647391108896   -1.16562527139742    0.05076416594251
O          -0.11474627475011   -0.80214303456509   -1.25256762368819
O          -1.80046349907090   -2.19577101926116   -0.22670232895913
O           0.32499719978160   -1.80867423192387    0.91413322964791
O          -1.25845050183855   -0.00370021214129    0.70370837439947
O           2.00526318050436    2.20699435487819    0.65552640753810
H           2.21114624258010    1.29639643535816    0.31500126498376
H           2.15979441895913    2.17107509079236    1.60088926070208
O          -0.50235242717052    1.33931691677579   -2.71599120528844
H          -0.47194804785785    0.45647953136758   -2.27739983420345
H           0.24587194155519    1.35839807031345   -3.31560034969561
O           2.25882121846542   -0.28823736718240   -0.15170756921131
H           1.60829903201908   -0.41336258225766   -0.86264546424661
H           1.91639760674418   -0.89375651312946    0.52497648927410
O          -1.49614235942695   -3.14999070619337    2.22712577625334
H          -1.97455182374229   -2.59768124463781    0.64808382200453
H          -1.23623448244468   -4.07261629296113    2.27932687412926
H          -0.68854135524695   -2.64975705195681    1.98357294660205
N          -0.51169610251826    2.27796679254616   -0.21877019266320
H           0.47413680511824    2.39370751236874    0.13193945211161
H          -0.88430086577580    1.35633820202941    0.20205282405146
H          -1.10269998403078    3.05967159212879    0.04023727553081
H          -0.50612602074941    2.12497102904021   -1.25595358521255
