    23
        -45.37182633  Gyration_radius:  2.39915726435 Dipole_moment: 5.918
 S           0.47759378536302    0.44410455075712    0.64238085271434
O           0.69114124642319   -0.42452970432334   -0.64796861168364
O          -0.87020963611886    0.03952339277178    1.13158153042628
O           1.50382564845525    0.01790659657310    1.56369892635583
O           0.50988868213158    1.83795451765536    0.28063944415838
O          -2.23921053089975    1.68920265717438   -0.46812264918721
H          -1.76969883251376    2.52037937997055   -0.35312297073080
H          -1.87234954810457    1.10123977215881    0.21850845921499
O           1.55823730887796   -2.42443459496073    2.39885147446279
H           1.50943331864388   -2.36348114971131    3.35475018021686
H           1.68707708149399   -1.48878313800874    2.08099733948203
O           0.89884619966636    2.72055559626149   -2.20009415779051
H           0.79326301304234    2.51917219178847   -1.24660419201970
H           1.84199869401611    2.71692388647658   -2.36815130631223
O          -0.76836836033599    0.62358332044117   -2.41989016917816
H          -0.21461626390467    1.40042596251970   -2.63893503023458
H           0.11650960895455   -0.02813991078853   -1.40705283498961
H          -1.48713975384637    0.98720324141530   -1.85124269628639
N          -0.49766307134081   -2.42387534707870    0.78069833536160
H           0.27164963738655   -2.63268711278096    1.48458939090707
H          -1.26869920635799   -3.08259421784579    0.81679128016878
H          -0.79602217568131   -1.37497546658878    0.99582148480550
H          -0.07548683538028   -2.37467442385226   -0.14812408984521
