    23
        -45.37611806  Gyration_radius:  2.46457174312 Dipole_moment: 3.227
 S          -1.24813256732430    0.07563509679665   -0.47799055753150
O          -0.97224540030433   -0.88734100850329    0.58754513402964
O          -0.90063078938564   -0.46656400469943   -1.78464890769522
O          -2.78635798309874    0.36021646652554   -0.46961965584899
O          -0.59937812765133    1.35110626744299   -0.20137816704115
O           0.46411852550239    2.27094495584258    2.01235589097514
H          -0.07431049115745    2.02935261675488    1.22213746823319
H           1.05365980428791    2.96964957466811    1.72242165118311
O           2.95189551060089   -0.74290096640329    0.24110134218514
H           2.53092313164628   -0.19752649765913   -0.47500135054159
H           3.04825385854460   -1.62299140007789   -0.12634456053466
O           1.55862802983265    0.57837187726900   -1.56328475109662
H           0.97649507842120    1.18168549501943   -1.07194696628051
H           0.90983405562018   -0.01061693190687   -1.98028442393406
O          -3.15896484571016   -1.76689082763987   -2.00593253565580
H          -2.21767193236444   -1.49841816128534   -2.06648084119148
H          -3.17633128466850   -0.43258664266506   -0.88979597370819
H          -3.54595949926065   -1.58891927814847   -2.86619926095176
N           1.05550240426534   -0.32978884236166    2.06807806526797
H           0.18178361657111   -0.61336995485239    1.50117072135090
H           0.96191491178429    0.70337745477427    2.22019298044794
H           1.09715266979092   -0.83412770638212    2.94634885768269
H           1.88982135407603   -0.52829759246266    1.45755582068070
