    23
        -45.37611811  Gyration_radius:  2.46425802582 Dipole_moment: 3.231
 S           1.23668797193220   -0.02086586541992    0.50969204178144
O           2.42396792995349    0.38060944172941    1.44587140092104
O           0.13234203914663   -0.45953675145323    1.36211135657898
O           0.87488347421033    1.18542571253091   -0.22400528518769
O           1.69542499214965   -1.09712478161590   -0.35815945024274
O          -1.11357343292677    2.85771588119390    0.13335174740527
H          -1.20008430716758    3.31087345386375   -0.70750029704705
H          -0.26767898559107    2.35332602441491    0.08058947623926
O          -2.48248167064578   -0.83578930107360   -1.56450519355680
H          -2.51840505732558   -1.79338966387360   -1.53983691822929
H          -1.59031639051297   -0.61019473275485   -1.93966606121694
O          -0.00354364924292   -0.28522517863414   -2.26661255510936
H           0.60367534338441   -0.93395401465547   -1.87649134102521
H           0.24445580239563    0.51973646125474   -1.78191570938708
O           3.19542536037970   -2.15467979093553    1.50544299328101
H           2.79774377205609   -0.47602670950880    1.73466519652145
H           2.60551667435707   -2.02543046309736    0.73282771534676
H           4.07087602384237   -2.32559284772060    1.15068007693222
N          -2.17532174599442    0.48441167834062    0.73067504890895
H          -1.23675689050174    0.06870428759692    1.06431152411486
H          -2.43776196720095   -0.02984532131212   -0.14961658553142
H          -2.88587433384984    0.39849638926434    1.44844608131904
H          -1.96920097289123    1.48835609183218    0.50964473717654
