    23
        -45.36866946  Gyration_radius:  2.27866576489 Dipole_moment: 3.038
 S          -0.18592035301855    0.33490620853523    0.76772661408230
O           0.19154219185945   -0.86872606226112   -0.01536808966391
O          -0.84408342740204    1.30339574891251   -0.08451263411750
O          -1.22070554790835   -0.15669040994872    1.81553131099048
O           0.97890687234924    0.87593865113998    1.44393261547974
O          -2.13911510542999   -1.36249339840910   -1.24948379600983
H          -2.81350551108880   -1.10074127336474   -0.61992582147357
H          -1.29606093681866   -1.34622045911520   -0.75653319365134
O          -1.19449647785689    0.73293874027291   -2.62049063241798
H          -1.23154411751544    1.17730001051279   -1.74261576217641
H          -1.68680171670128   -0.10075580118728   -2.45769322493674
O           1.84338981439830    2.06934407433410   -0.74046479798877
H           1.67584634445551    1.68196619581886    0.15068151900407
H           1.16766911648992    2.74548557837581   -0.84446822129094
O           1.14390069486790    0.04728769316992   -2.13310624727423
H           0.17834641694555    0.34574256791957   -2.52269328184744
H           1.55321078949747    0.89174573630485   -1.71773779569871
H           0.85126196620625   -0.48466050694925   -1.28926543866261
N           0.66765614187048   -1.45728947947063    3.02096267646967
H          -0.66866225658687   -0.73877669996845    2.42310896344654
H           1.23704383737114   -0.68052437205271    2.69389290627214
H           0.87390517513783   -1.63271154887663    3.99593321882370
H           0.91821608889424   -2.27646118368995    2.48258909264350
