    23
        -45.37283343  Gyration_radius:  2.32852340936 Dipole_moment: 5.575
 S          -0.20948907285030   -1.09784152834255   -0.25203128050791
O           0.50270715814243   -1.10538004533308    1.05364471260354
O          -1.63556849636891   -1.18367784015360   -0.06857111334557
O           0.13877590388727    0.30698835466830   -0.86877745730516
O           0.36596056351391   -2.05009598760175   -1.17043857238811
O           2.43006687832598   -0.81683737991922   -2.07786833324454
H           2.01524508952662   -0.13924674632993   -2.61792879641815
H           1.67850760089475   -1.42165946702531   -1.82165282949145
O          -3.28369816088606    0.84031522682543   -0.57839747090829
H          -2.76921077483581    0.02663533809151   -0.39109113820439
H          -3.60723635250265    0.74807081373312   -1.47514430098297
O          -1.35701744539570    0.20004461229476    2.45210657338316
H          -0.65185530444352   -0.36529929925291    2.08366146827926
H          -2.17697157983636   -0.22731381805737    2.18903742459852
O          -1.12122813094578    2.01284002320609    0.51501261249394
H          -2.00119654188949    1.90249114174823    0.10559865783852
H          -1.19326215747795    1.52667980115243    1.37008441159030
H          -0.35259068676397    1.03339447194636   -0.33800658660348
N           2.68149067218469   -0.01811023561091    0.39226398854991
H           3.50662651341056   -0.35546022816114    0.87793459600149
H           2.57751965210505    0.98639951031387    0.50258145920675
H           2.69867436718549   -0.28561080330994   -0.65295220549563
H           1.76375031503169   -0.51732589489397    0.77093418036505
