    23
        -45.37432800  Gyration_radius:  2.32613873075 Dipole_moment: 1.835
 S          -0.20274427744482    0.47838344583740    1.05903534498238
O          -0.98075152421985   -0.76457148652225    1.03659166456608
O           1.17280623663342    0.22321368593280    0.62558993945571
O          -0.81789220443173    1.52444419702282    0.27300839772793
O          -0.15162402109281    0.97531719523565    2.53752463785541
O           0.22069666287568    2.76428530980066   -1.83338211905828
H           0.73200987367240    3.51426645373558   -1.52614037385031
H          -0.24554720710579    2.41548966301536   -1.04038249166370
O           1.08248170206713   -2.27793061172640   -0.53833443507652
H           0.22331551763232   -2.61295948354374   -0.27438172625896
H           1.27576954724775   -1.55649790394195    0.07764377549206
O          -1.65173628620205   -0.53153755750871   -1.51161880587439
H          -1.50821123668728   -0.74819794014519   -0.56501169024599
H          -2.10190787389868    0.31798255255917   -1.49662680181219
O          -0.06960727345077   -1.53251905561175    3.37127044946317
H          -0.76755492726727   -1.82007655321831    3.96402964725989
H          -0.45330830632941   -1.52291665358158    2.47051470097409
H           0.04404442470688    0.17223923065198    3.06354311608334
N           0.86352728010333    0.19190330490741   -1.97620150459031
H          -0.11416905451070   -0.21626483982757   -1.97047846984262
H           1.15593890042421    0.18216541793528   -0.95580050563533
H           1.49655318612617   -0.36942199917274   -2.53701406277680
H           0.79791087117497    1.19320361810874   -2.25337867718393
