    23
        -45.37691826  Gyration_radius:  2.38482633921 Dipole_moment: 4.472
 S           0.32147531383798    0.57070490399445    0.63888639040162
O          -0.22636943530576    0.60825843369231   -0.73251247408966
O           1.50221757999395   -0.28260409962757    0.68658939355997
O           0.50342307959540    1.88600619701173    1.19066326410361
O          -0.75000749006808   -0.19728048647383    1.49602733255691
O           2.84815548736059   -0.91419568605236   -1.51548217476472
H           3.22377413183748   -0.11297831854655   -1.88348683337063
H           2.52267295846800   -0.67397318298841   -0.61966925683136
O           0.34269428507239   -2.65822295220385    0.78579295499251
H          -0.44132834677031   -2.46452459733144    1.30746959884245
H           0.92260285106503   -1.87850513611810    0.92833930703748
O          -1.43772617006998    3.00799493001148   -0.18606760726453
H          -0.62917651560673    2.88242672041127    0.35136737616092
H          -1.32414960349124    2.36578717070099   -0.89631537764678
O          -2.63596249494417    1.56799711145864    1.66814817812930
H          -1.52050661141223    0.43033425079467    1.58985100032601
H          -2.49592305190701    2.06138051567655    2.47952103049854
H          -2.35615651305935    2.17500320953559    0.93389065352906
N           0.30768453250256   -1.70322850891450   -1.68125749674523
H          -0.01918311165115   -0.71683202545209   -1.36932118100647
H          -0.21292603852610   -2.06868453452140   -2.47038083719272
H           1.32500155458043   -1.58215722837709   -1.88531357391753
H           0.22971360849727   -2.30270668667510   -0.81673966731406
