    23
        -45.37432795  Gyration_radius:  2.32649458712 Dipole_moment: 1.837
 S           1.07932308153567    0.32949991812149   -0.34223510268514
O           0.93992447776191    1.27582641634743    0.74198165427222
O           0.84667074425902   -1.04298233555777    0.11298114127435
O           0.19966188461869    0.64548986062754   -1.47232952077828
O           2.55162697358717    0.41896436670237   -0.85172588983927
O          -1.53917393557841   -1.77454266328614   -1.06721203439781
H          -0.59685185152935   -1.72527106222286   -0.85069383417618
H          -1.68647576697633   -1.08437456433835   -1.71684733321359
O          -1.82048376945328    1.40519033248611    0.05761264926679
H          -1.40530400739599    2.11542955774662    0.55528721085685
H          -1.16481762404809    1.17856120304749   -0.63687320885899
O           0.17561936415781    0.75931448464040    3.23236079894292
H           0.51716271762916    1.06476495197455    2.36183600985288
H           0.94868383773470    0.52359629763598    3.74721567177022
O           1.78852487317761   -0.51503642355503   -3.20440648962114
H           1.96419078295522    0.03538953142867   -3.97073570481939
H           2.54520608463461   -0.04524737178048   -1.71452543926503
H           1.00447937152916   -0.13340646730469   -2.75915152933686
N          -1.29754267333875   -0.70912376147071    1.58163623750590
H          -0.43661911943784   -1.00849704903825    1.03761806686275
H          -1.94735407748780   -1.48265807341834    1.68024773361589
H          -0.95362366993733   -0.30455975221411    2.47712333563981
H          -1.71282769840295    0.07367259342624    1.00083559716133
