    23
        -45.37432795  Gyration_radius:  2.32622323827 Dipole_moment: 1.842
 S           0.50716404939544   -1.05152185217163   -0.16973206760009
O          -0.82190800938029   -0.97384250682294    0.44086071630884
O           1.52170795104970   -0.50525198155817    0.70356455097498
O           0.84338040442824   -2.55970065342058   -0.38794546498416
O           0.49970093594623   -0.40454036081607   -1.48578964758804
O           0.99202309406798    2.00946463386091   -0.52085817074592
H           1.82441954588137    1.84943256029607   -0.06685345440964
H           0.82932910009628    1.18578016988640   -1.02923057300854
O           1.14388941898470    0.69436324431454    3.04259933291581
H           1.41182624392984    0.22624207519183    2.21988484309553
H           1.14021954250703    0.02856886409905    3.73175486193926
O          -2.16718611684588    0.91231456681280   -1.05961321248955
H          -1.89815743964247    0.06758637176357   -0.67058445823838
H          -1.60036802946557    1.03087797280855   -1.82425202782272
O          -0.49413784810087   -2.52199205210158   -2.66851523562651
H          -0.23616121628749   -1.60287262316257   -2.45089845443224
H          -0.01172027971673   -2.76168952358268   -3.46285046235006
H           0.29233265083599   -2.82984138820315   -1.15163077613293
N          -0.78052173548520    1.46982486331239    1.38536856642145
H          -1.65679586516404    1.97465869623877    1.47250167340329
H          -0.17288687782027    1.87844344774367    0.61963613643420
H          -0.21393317970546    1.41463453938176    2.25685225358686
H          -0.95221632948146    0.46906094622093    1.07573108049194
