    23
        -45.36866953  Gyration_radius:  2.27846402455 Dipole_moment: 3.032
 S           0.34091711150592   -0.71759670973686    0.32547357992559
O           0.84950106417705   -0.80031051863891   -1.02801923173758
O          -0.21719985935476    0.63361479197687    0.58506752125708
O          -0.65359397032026   -1.73319342593465    0.61922794075086
O           1.54466543702461   -0.86480606648266    1.29489455088273
O           0.68584410847347    1.30937079766300   -2.57842578213022
H           1.17531442806263    1.90489974128817   -1.97024733037101
H           0.90538440601257    0.41699637969490   -2.22522838900351
O           1.81482082108160    2.14570286851500   -0.30059844787748
H           1.08393171393847    1.69123451107167    0.16127003312262
H           2.60554847320421    1.64500959909430   -0.09153873235071
O          -1.89079874715070   -1.35705005751428   -1.67673040161166
H          -1.56442141228245   -1.61254920928447   -0.78200303596013
H          -1.22958486435888   -1.69914045474975   -2.28533905280644
O          -1.53316280456507    1.16204658673135   -1.46889923827478
H          -1.09845781016580    1.06410351970100   -0.52953767679758
H          -0.65337357379547    1.33200098207854   -2.07672307088223
H          -1.82935530789919    0.19905731334942   -1.66449163746916
N          -0.11193639815323   -0.94075975750922    3.28492001463714
H           1.10460233280354   -0.89947296726792    2.19914705408708
H          -0.70946037308888   -1.40510627225083    2.60532730779166
H          -0.13233450797412   -1.45869704704184    4.15391213388891
H          -0.48685026715306   -0.01535458479328    3.44854186093703
