    23
        -45.37276216  Gyration_radius:  2.37738074881 Dipole_moment: 7.378
 S          -0.35017007514730    0.79782762269326   -0.30608195848997
O          -0.52786489678765    0.73429360952211    1.14517037277488
O           0.72341788112584    1.67307451271307   -0.69972373630989
O          -0.02312575398343   -0.66227353553216   -0.77610426238062
O          -1.62562144024687    1.08142713084844   -0.97657426567026
O           2.97654151132883    0.85845003262741   -1.85516942064743
H           2.84844607013280    0.88307581564401   -2.80413519335818
H           2.17972784861750    1.27314064068560   -1.46284626187814
O          -2.40854544355982   -0.80515481123175    2.03940828797691
H          -2.95835395645150   -0.25414615283641    2.59941844313513
H          -1.62177623289009   -0.24362403542910    1.80469711356326
O           2.07438830334588    0.85110579847281    1.72361544680140
H           2.33582502465778    1.61066534788973    1.19564216432977
H           1.09933704550078    0.83870206691714    1.67967644608271
O           2.36484586599230   -1.08383134270660   -0.08639755528883
H           2.40288685481888   -0.52057323298955    0.72138244381885
H           0.94376596675010   -0.89561394832609   -0.49528606276726
H           2.82036074746548   -0.55738700990102   -0.77309258551003
N          -2.68955984215733   -1.15045343916225   -0.54791363756711
H          -2.75496647087376   -1.14279301462613    0.50965848670230
H          -2.32261375017764   -0.12201993180841   -0.80921241724084
H          -1.92448034918151   -1.76482423883306   -0.82512452831085
H          -3.56246490790764   -1.39906788530004   -1.00100731988187
