    23
        -45.37432797  Gyration_radius:  2.32629955834 Dipole_moment: 1.843
 S           0.45926447016666   -0.89662697840200    0.61451456941008
O          -0.93751080499812   -0.95302162558720    0.17757409225113
O           0.68633183480694    0.29651496164706    1.43647298031892
O           0.72841849972864   -2.14477220114437    1.51187330194587
O           1.36654769831826   -0.96894030885421   -0.50884252185908
O          -1.92571363856463    1.57539830900541    0.67864015632606
H          -1.24697442776786    1.97294872359343    1.22757227882175
H          -1.77093091280918    0.62123676607551    0.73160069162510
O           0.72785984334745   -0.99847622624810   -3.08636368955267
H           1.08311610154821   -1.04541825040289   -2.17011089035706
H           0.58149476040813   -1.90637521088432   -3.35580032899856
O           1.18113094040052    1.86999457783784   -0.63210341279480
H           1.92705204631195    1.40971661726765   -1.02742371416134
H           1.04367185377568    1.41771954077867    0.22814076559758
O          -0.25655321988130   -0.85018923583633    3.59659379845415
H           0.02503139373535   -0.18889176176210    2.93165882979185
H           0.27863859344505   -1.94396845758207    2.35873950288842
H           0.32055753469335   -0.73950390143205    4.35542476891909
N          -0.88076559162930    0.71123979093079   -1.84547204316064
H          -1.06804704995768    0.01209289255835   -1.06896637821842
H          -1.72683996798548    1.21873387966747   -2.08411757513997
H          -0.14347667089827    1.35635390534460   -1.44202850525433
H          -0.45230329622901    0.17423419340098   -2.62757670686833
