    23
        -45.36368309  Gyration_radius:  2.35726598937 Dipole_moment: 6.705
 S          -0.25051732075618   -0.89625671897997    0.43379146145130
O          -0.56050570349957   -0.20494164827112    1.68730961266180
O           1.15088325776030   -0.38582780412324    0.02179293918287
O          -0.04962850638708   -2.33721670853203    0.70545257180040
O          -1.20271475580354   -0.64325689822416   -0.62032106540623
O          -0.88803472374007    2.43297411105978    1.40550025745364
H          -0.74381831234830    1.47506535947793    1.54626278814343
H          -1.70849656704608    2.64561551656231    1.85404316692649
O          -0.44022690324276   -0.92480602978565   -3.19347982756800
H          -0.77695227976341   -1.00308519136816   -2.28112091342087
H          -1.17088392878059   -0.58930875251174   -3.71712327053577
O          -1.16961724019727    2.01866402181682   -1.27606461415651
H          -1.43672328313975    1.10291470235396   -1.09485033807670
H          -1.03313968220056    2.41272367404095   -0.39458050387736
O           1.11840307073985    0.97003426462998   -2.07413459609183
H           1.18192136324837    0.19914932244049   -0.85899777433182
H           0.75852754107055    0.29998271739488   -2.69213972757087
H           0.35100199050461    1.56445137300771   -1.87390191634113
N           1.42893578855163   -1.63945730297865    2.54236583751959
H           2.32039891267098   -1.33000786861210    2.16708510482405
H           1.53359552849413   -2.13967723442590    3.41835721865663
H           0.76486053294395   -0.83672313012030    2.59644622459973
H           0.82273119095187   -2.19100977486119    1.69830735412833
