    23
        -45.37703262  Gyration_radius:  2.31066314561 Dipole_moment: 2.509
 S           0.77346717578546    0.85389624028270    0.55839338870539
O           0.65097894937964    1.53724856340433   -0.71519576584301
O           1.74734624368164    1.70141426057801    1.43701859551661
O          -0.51777757133206    0.79631793987830    1.24683538591921
O           1.35405292841129   -0.48260327511913    0.42428282278051
O           0.68611618953620   -0.55875208415258   -2.38299988367058
H           1.21724781086929   -1.17420052577312   -1.87032102918868
H           0.76774003220162    0.28740715488353   -1.90247350294713
O          -0.91289085836384   -1.91140553725569    0.56324095282920
H          -1.31469011630587   -1.42234977064082    1.28640043567744
H          -0.01912528569371   -1.52597324954077    0.48486330735122
O          -1.86280273408343   -1.07862461884597   -1.79064297103856
H          -0.98700245163930   -0.98836964121254   -2.23314281100756
H          -1.65774284057560   -1.57416592952174   -0.96492178483119
O           2.39851385892766   -0.44643784753100    2.84345212035215
H           2.01774187549259    1.11137315069582    2.17071627598507
H           2.03343064227201   -0.75045287082467    1.98864254676112
H           3.32339509776836   -0.70290747995162    2.85371892906447
N          -1.98401604986130    1.29263529730486   -0.80919211681734
H          -2.85113878409897    1.81840583469812   -0.80305135709326
H          -2.06591795755013    0.30181611528080   -1.28480410181851
H          -1.21474840193230    1.79642768739312   -1.26587411966687
H          -1.58217776288906    1.11930061596988    0.16505467298010
