    23
        -45.36902793  Gyration_radius:  2.58888991316 Dipole_moment: 5.260
 S          -0.49787208547157    0.02252694514520   -0.82274246345290
O          -2.05475338921606    0.19345718015119   -0.72316194326008
O          -0.12894812243123   -0.81204439645488    0.33940931247050
O          -0.16242823688378   -0.58585809703503   -2.07994736355959
O           0.02482207724195    1.37916299341220   -0.65942398749380
O          -1.32062808951577   -2.89753098474940   -2.66806399801320
H          -1.78053463689362   -2.74748986791514   -3.49574266672678
H          -0.77140102094509   -2.09737638137746   -2.51849511067396
O           2.61546133747011    1.70381402219390   -0.21393599081299
H           2.92005449461748    2.40279634943976   -0.79486540660393
H           1.68295545254101    1.52766749897210   -0.46982398719261
O           2.47825330910391    1.60293695943145    2.43195529316626
H           2.64929611526028    1.72811035459146    1.46753013009076
H           2.99254292043892    0.83447533329428    2.68670804858433
O          -2.33094648501203   -2.32604173693236   -0.25244950336945
H          -2.38422631961089   -0.73788204501635   -0.57906538550408
H          -2.11090313396918   -2.73156786353098   -1.11862987281956
H          -1.47835083708982   -2.21478342030808    0.19202448553156
N          -0.08658818322072    1.16956725570427    1.90996950808221
H           0.87945566960145    1.36168186325410    2.29376188211145
H          -0.11276419991448    0.17547727646490    1.48496032453174
H          -0.82913309346083    1.35162999111758    2.57557664159000
H          -0.19336355257552    1.69727078012982    1.01445205333597
