    23
        -45.37159133  Gyration_radius:  2.31525997048 Dipole_moment: 7.187
 S           0.16479904851142   -1.00705383585700   -0.12868345985810
O          -0.94749216867698   -0.95728365727201    0.83258537262342
O           0.47902574012126    0.35659091352842   -0.58084441181907
O           1.40450331535573   -1.58916303124179    0.55029881064484
O          -0.17171375062279   -1.86683486175210   -1.25665876282737
O          -0.20168790384439    1.25029918200474    2.12025735392418
H          -0.05757419837413    1.81759131559272    1.35793436297611
H          -0.59655740139868    0.43129867300599    1.76160393223287
O           2.88718834627176    1.36306720494552   -0.01348395817707
H           3.51661644775966    0.88530778930620   -0.55587649502092
H           1.99967314333902    1.06616754103579   -0.30271276687707
O          -1.65061297456417    1.19190109933989   -1.87034291793632
H          -1.35805313201464    1.45533891096000   -2.74463455053073
H          -0.82787243629079    0.96619819519829   -1.36979307761676
O           2.19769246159956    0.08733153359096    2.25741994659773
H           2.66475944103755    0.67001027610485    1.62375164852036
H           1.35755313212831    0.55715782299399    2.46315652261592
H           1.74290688001928   -0.96665226874707    1.31150894418196
N          -2.58993267837117   -1.15580759409711   -1.11224628756361
H          -3.46836309697821   -1.63329838912137   -1.28092453855875
H          -2.52271548721603   -0.19582498509419   -1.53144230998995
H          -2.32120547110379   -1.05839142217354   -0.09818682169005
H          -1.70093724669625   -1.66795041223672   -1.43268652585360
