    23
        -45.36973552  Gyration_radius:  2.45035945925 Dipole_moment: 5.156
 S          -0.83520661227716   -0.87874926108513   -0.60237596353828
O          -1.13256028220592   -1.30088653458910    0.73556961798234
O          -1.95736943953886   -1.42975296661147   -1.53970226875558
O          -0.83419728224350    0.58500021396193   -0.73839012942917
O           0.44856557467587   -1.40978491025346   -1.10305155357418
O          -1.80753327886380    2.05887068863597    1.27468145713236
H          -2.74799088117499    1.88931086351414    1.34961186038316
H          -1.50879131269823    1.57020214460745    0.48140605990335
O           2.12727652592198    0.58417443854094    2.23039904615879
H           2.53101969332763   -0.22144953705919    2.55755463451598
H           1.16265369280112    0.53793494428714    2.52601191551415
O          -0.37567272725087    0.29731174078412    2.76158169108175
H          -0.66478914253429   -0.41360924881164    2.15681698442000
H          -0.86429728570779    1.08322754320362    2.44811864794670
O          -0.28919459289998   -1.38887635381737   -3.61263754351414
H          -0.20345406520527   -2.25101908677161   -4.02515803015078
H          -1.60228050436564   -1.32567616685625   -2.44458141221050
H           0.21089617340836   -1.43028388755024   -2.77015028670598
N           1.71049745940205    0.71298462618911   -0.34311280789582
H           0.72875922749303    1.07079964063859   -0.46285768302712
H           1.96357402412164    0.70422624804649    0.70201327737390
H           1.55699606398719   -0.27218477827176   -0.68061867897492
H           2.38309900183622    1.22822962926281   -0.90112882464487
