    23
        -45.37376558  Gyration_radius:  2.33162976386 Dipole_moment: 1.651
 S          -0.58621283926272    0.84430335364944   -0.49700277766786
O          -0.05641693056632    0.01467581898786   -1.58473044863278
O          -1.59630663721181    0.12989604494670    0.27468802146221
O           0.48230619382676    1.33426470636984    0.35459028694349
O          -1.31353018278072    2.06229838818501   -1.14889461977320
O          -1.29723823850539   -2.48122862523352   -0.56078498129192
H          -0.73755094715653   -2.40448569968500   -1.33638345395397
H          -1.65978579602073   -1.59418898200397   -0.42570073479656
O           0.74813766485544    0.87503586598462    2.94341319744186
H           0.72421508910953    1.15102820515639    1.99723377397043
H           0.24248989757521    1.53534673609459    3.41940452939207
O           1.77248686632251   -1.15017198502889   -0.07203944248021
H           1.15405032910939   -0.81384563927495   -0.75638012100984
H           2.24361762893292   -0.36665311228656    0.22740199936628
O           0.43107306600935    2.07624236508042   -3.13607039272688
H           0.07260762517662    1.95357870631833   -4.01807210441600
H          -0.72158801383773    2.35174063417331   -1.87420891707171
H           0.45933197987283    1.19065680612807   -2.72017511320325
N          -0.07649640676820   -1.37304704099605    1.81480067434025
H           0.71043319776307   -1.49330363417605    1.11289503117100
H          -0.41837429887701   -2.26764400923949    2.15075704547492
H           0.25074060117562   -0.71660945982777    2.55658464683091
H          -0.82798984877741   -0.85788945331527    1.27867391063050
