    23
        -45.37376545  Gyration_radius:  2.33153765089 Dipole_moment: 1.662
 S           0.01924457319199   -0.64058150993869    0.94625564340901
O           0.48926848789059    0.71275592972528    1.17936994096644
O           0.89523458521230   -1.35739352959916    0.02700145572023
O           0.05809147962002   -1.42921652193214    2.29314195215312
O          -1.37010006864203   -0.64317855547845    0.47513753653348
O           2.53680234084257    1.88222499299385   -0.01284851048282
H           3.33213716319083    1.66950253862015    0.47746227143413
H           1.78899589919784    1.53289884886278    0.52651655104052
O          -0.66825345154461   -1.66284475315496   -2.22423955708764
H          -0.16773024765803   -1.85431499849303   -1.41836012200390
H          -1.54749327137463   -1.42870858465015   -1.92000743849469
O          -1.06227449836118    1.48561189398427   -1.06198036732208
H          -0.76828522569191    2.11398436751014   -0.39547060629316
H          -1.33393158740129    0.69530475034214   -0.54667447708085
O          -2.36095400896999   -0.55398109314184    2.90532011592951
H          -2.24719760084478   -0.46591469401049    1.93715205894128
H          -3.03449250916440   -1.22407576970297    3.04239057457840
H          -0.72918708807165   -1.12185388180619    2.78904401453167
N           1.25550693159931    0.46274096753265   -1.84317191870815
H           1.95985539643289    1.11018803665444   -1.42741003886991
H           1.44076468827909    0.18057282403060   -2.80027997848729
H           1.21460480691190   -0.37681724418555   -1.20208636988307
H           0.29939319492707    0.91309597659934   -1.74626272010147
