    23
        -45.37691822  Gyration_radius:  2.38496995408 Dipole_moment: 4.468
 S          -0.24396984521146    0.67260468753654   -0.57059992842646
O          -0.88515404956560    1.92795491790888   -0.85427008260208
O           1.31412179910674    0.88478538497859   -0.57231375315342
O          -0.56983881259062    0.16819436037239    0.77911001915336
O          -0.46817962481333   -0.36887247646217   -1.56546518281498
O          -0.96910633243007    2.73871046551861    1.64774124274116
H          -1.15711615920628    2.65103231225892    0.69113097094184
H          -0.99531193933483    1.82511648975363    1.95517086378555
O           1.74841380813090   -1.77912611051014   -1.25553383440854
H           2.38520785076599   -1.08862758808126   -1.05048318282973
H           0.97654995893400   -1.29175299058477   -1.61775177310752
O          -2.00317437295881   -2.47637098547153   -1.05217426113051
H          -2.90154639002312   -2.17291546032709   -0.91312562993798
H          -1.51119364667860   -1.70757089920171   -1.41680383784156
O           1.54964735950109    2.99253911230285    0.91262364267598
H           0.65537693776792    2.98677659679203    1.34414696865175
H           1.47769164228684    1.68481431557350    0.00180042853362
H           1.55103399040559    3.75509024058159    0.32962742053038
N           0.02064778999445   -2.31562396137882    0.67492005786309
H          -0.21243908010822   -1.27101529615902    0.85259345349330
H           0.84301049912591   -2.30347377507374    0.01426353561216
H           0.19765924900919   -2.83852764972312    1.52494919886593
H          -0.80233061210567   -2.67374170058113    0.14044366340815
