    23
        -45.37376537  Gyration_radius:  2.33143017973 Dipole_moment: 1.660
 S           0.27577883493699   -0.62099852716412   -0.91880070782146
O           0.00687251194249   -1.62239535610840    0.10638044140248
O           1.34001564641870    0.27917757540175   -0.51383533801410
O           0.73226653523736   -1.40602149064438   -2.18877909777931
O          -0.93822398667754    0.12216329514190   -1.27369759294202
O           2.55431510576758    0.30483106863379    1.83296097053411
H           3.28091390612075   -0.31913701762576    1.80300696103829
H           2.20685227002158    0.35498449565161    0.91162818706790
O          -0.66584738505165    1.88796580062996    0.67543066516547
H           0.20573182641316    2.22821889193819    0.45152144287085
H          -0.90607974762940    1.31739414385577   -0.08647583224480
O          -2.50080518754019   -0.92948493264029    1.02168161511180
H          -2.81145407333944   -0.29839417701046    0.36915479116723
H          -1.77881283746697   -1.40435949244813    0.58606308243678
O          -0.14591828134626    0.54670744758675   -3.74095290738145
H          -0.59517716488008    0.62757505519851   -2.87513473745590
H           0.63038441413609   -0.77146464351887   -2.92843134409210
H          -0.82267369582146    0.31259348532638   -4.38021823927609
N          -0.01999788511318   -0.12609931937012    2.27411522541178
H          -0.40533942755023    0.74413236670676    1.80468800295429
H          -0.05248925918782   -0.86575452286639    1.51937859227096
H           0.99037773644721    0.03725424161800    2.47545548663358
H          -0.58068985679209   -0.39888838853676    3.07486032297620
