    23
        -45.37376558  Gyration_radius:  2.33168930215 Dipole_moment: 1.657
 S          -0.57470395195267   -0.61617867977994   -0.77095817745291
O          -1.55899051408226    0.35013401741561   -0.29824414392902
O          -0.18394526400683   -1.54775171666865    0.29275344127233
O          -1.28002783548816   -1.44950420993545   -1.88698115295894
O           0.58614813484448    0.04483286012364   -1.33881533510958
O           1.68837434443942    0.04175017445533    1.27110597146364
H           2.22938499592546    0.14421988541759    0.48224964773208
H           1.03765183592528   -0.65274864692924    1.02998488767103
O          -1.48040610667852    0.03916637504987    2.44126954832202
H          -1.77778156232126    0.01627321941906    1.52064408518828
H          -0.98153537506917   -0.77159190843313    2.56074356136172
O           1.03700873899679    2.64791492525937   -1.37905822993933
H           0.95172196330995    1.66935559641425   -1.46475648404184
H           0.61156226696000    3.01462602214571   -2.15541443397312
O           0.29610104252294   -3.51184305377409   -1.38261209513247
H          -0.73248710732410   -2.25635892216965   -1.98441894027612
H           0.30633258424404   -2.92899021016400   -0.59634031573254
H          -0.13989924670446   -4.32433678865212   -1.11581523967488
N          -0.01033866779911    2.05618242237018    0.97892958565712
H          -0.77159720573246    1.47920251525613    0.52602637983312
H           0.41501614169397    2.62463868938357    0.21446939130354
H          -0.37539323399670    2.58985135598592    1.76117814202472
H           0.70780405243776    1.34115607706984    1.29405988656162
