    23
        -45.37284373  Gyration_radius:  2.43233774363 Dipole_moment: 6.309
 S           0.43033735577293   -0.81345356176550    0.48107316868266
O          -0.44804616324948   -1.26409057416765   -0.58517158086808
O           1.15315999505134    0.41220247928823    0.08291660802579
O          -0.27852862127906   -0.58481642857067    1.73516168937739
O           1.49607308502592   -1.90830066468536    0.73813309110650
O          -2.53658673809554    2.16162657808139    0.09694693217423
H          -2.75872632526917    1.19571124930040    0.19716967876631
H          -2.45776791364221    2.31059358254971   -0.84703523345841
O           2.65866917366265   -0.13866062777981   -2.04003883719520
H           2.08129699704854    0.14738408913790   -1.30027606934608
H           3.55997857711836   -0.01924645249958   -1.73552329320804
O          -2.76533323926600   -0.43823572054203    0.36752810634185
H          -2.60599618345932   -0.70204780908706    1.27803651134984
H          -1.98959337166117   -0.79449766632787   -0.11873548004984
O           1.60614396042874   -2.59890713818956   -1.73101593933367
H           0.66974239837956   -2.34900832284498   -1.73567588253726
H           2.07935016543230   -1.81293443432363   -2.07570149629116
H           1.66838438115053   -2.32011658642096   -0.16296213129936
N          -0.31496999454709    1.95892790883328    1.49543661759494
H          -0.02725798116403    2.67245477915109    2.15557650688488
H          -0.45638501981557    1.00199874554542    1.92993574834263
H          -1.20101464502762    2.20676925941085    0.96420065071346
H           0.43707007738707    1.67664730588628    0.81002063425431
