    23
        -45.37094148  Gyration_radius:  2.37273668477 Dipole_moment: 5.939
 S           0.22653662201855   -0.30130500264104    0.89014651149289
O           1.09362940730495   -1.13523958662567    0.04698346228407
O           0.92301213225633    0.82969345814459    1.46485281830998
O          -0.88271421146740    0.25600528556002   -0.08019051954368
O          -0.50903171543853   -1.11323705706051    1.84951472734584
O           2.55795565522519    1.08608682497081   -0.64757241362876
H           2.50218254001158    0.15148001946211   -0.87537435825952
H           2.19378869895691    1.11361953945360    0.25529174932445
O          -2.45140063774749   -1.62012703652579   -1.24763748762435
H          -1.94103501240506   -0.84433888978767   -0.93919389961334
H          -3.37069790307405   -1.42849391782953   -1.05399184889628
O           0.29329170023641    3.40157625605542    0.98203700690141
H           0.43927601350679    2.49596253016967    1.31844304244285
H           1.07102072392691    3.90397844405342    1.23201661234996
O           0.20292367860946    2.11751737640637   -1.38729120442025
H           0.12207799544774    2.81169198562089   -0.70098036111257
H           1.14397618629331    1.83056579924749   -1.34390622487153
H          -0.48238286064498    1.01310642558255   -0.66467061963535
N          -0.64294474541399   -2.98126727719611    0.16535345809255
H          -1.42655174552644   -2.74209354408418   -0.47930231021400
H           0.22742222693322   -2.45299523505681   -0.14848525499520
H          -0.78252511652060   -2.41478635483867    1.06883107205307
H          -0.50780964244685   -3.97740005315088    0.29512605211609
