    23
        -45.36866950  Gyration_radius:  2.27855694375 Dipole_moment: 3.038
 S          -0.20035787238926    0.53173430446817   -0.64168874316145
O          -0.22805894651074   -0.12718853566327   -1.93466915560111
O          -0.68154452114120   -0.39503463432125    0.41388575243763
O           1.10860510200892    1.04831154297443   -0.29912625086684
O          -1.19659813318034    1.72240933920131   -0.63717410620841
O           2.02480567102192   -1.41076000586960   -1.46283211641138
H           2.64571397019441   -0.67659904442102   -1.47284795509504
H           1.17802439967433   -1.02821033993493   -1.79266865914065
O          -0.23794803149108    1.11847255051483    2.58424784464849
H          -0.39292985915511    2.01885002110908    2.29273765561872
H          -0.55547556216990    0.54705558900336    1.85844072540407
O           2.22548307526618    0.28781435425770    1.94870653583434
H           2.03941253272551    0.75448853684695    1.10191874232026
H           1.48342877919004    0.58149440621650    2.52073306263542
O           1.30955783141599   -1.79865841352908    0.95725237525653
H           0.38140691208864   -1.35867911428436    0.79623690246426
H           1.70694834131365   -1.80266475611019    0.01127331439441
H           1.81547855118255   -1.00219437415168    1.48941529915692
N          -3.02603490175521    0.15353286542098   -1.58619251999094
H          -2.04735726881473    1.30753915216650   -0.97933842935557
H          -3.34981136233699   -0.47393070190132   -0.86146540992727
H          -3.77041977994644    0.28589267908732   -2.25872143800067
H          -2.23232892706487   -0.28367541106672   -2.04812341642202
