    23
        -45.36838836  Gyration_radius:  2.38967948763 Dipole_moment: 7.227
 S          -0.48265953574665   -0.13977664872792    1.03992391250749
O           0.17503023229703   -0.14047809943247    2.34649000593362
O          -0.66297686024987    1.24150677193355    0.55594720042129
O           0.59623854757603   -0.76849271087023    0.07544099848422
O          -1.67451363779667   -0.93430094738596    0.96473238036774
O          -1.74051276111786    1.15332989294083   -1.86557620498058
H          -1.46585912871147    1.21021885415577   -0.92562580542159
H          -1.48029975071134    1.97966500618155   -2.27547281222386
O          -2.37567476807466   -2.73448197505970   -0.86787409678556
H          -2.28784569509335   -2.06384520643025   -0.15953659887972
H          -2.17190429648525   -3.57668149795164   -0.45806194141510
O           3.00771676785285    0.44386801462220    0.01889190325074
H           3.69554119916435   -0.20705713634742    0.16746829111435
H           2.17418670061915   -0.06015117098272   -0.08809892253800
O          -0.54776202707816   -1.23083980870818   -2.10833059306975
H           0.15126579215868   -0.98588661054118   -0.84459523352043
H          -1.23341584124514   -1.88431608614526   -1.84469779176600
H          -1.03684347793395   -0.38804310217240   -2.22351489381836
N           1.51840342467160    1.86947336140549    1.71755107713693
H           0.67616397760905    2.01253613391032    1.09897566697071
H           2.31254523808991    1.53889004825437    1.13131963400222
H           1.74556798654531    2.66355374703735    2.30471702535096
H           1.10760792361298    1.00130917032597    2.23992678888074
