    23
        -45.37824527  Gyration_radius:  2.39108254629 Dipole_moment: 5.932
 S           0.91192524633232    0.08551461636156    0.26788928600495
O           0.46508490562800   -0.42048122073936    1.56061397985636
O          -0.14231096546732    0.93330326142619   -0.33360990649567
O           2.14779495738697    0.98797574514266    0.49266225557482
O           1.27704997426124   -0.97622333097736   -0.64659610037887
O          -0.87706063523921   -2.46184453203930    0.65071044442040
H          -0.43237782974325   -1.73028762936405    1.14626019518770
H          -0.14838556872823   -2.98879968256581    0.31256263274867
O           0.27814973723308   -1.47140916928279   -3.02324065743525
H           0.79019513253950   -1.21522082509292   -2.21948689868272
H           0.69060339496832   -2.27033521721224   -3.35525445046993
O          -0.59723725831914    3.07560745672353    1.16691745752524
H          -0.29255623972159    3.82482312621929    0.65181282525095
H          -0.51290765670700    2.29208544341862    0.58220044455123
O           1.25150606512785    1.88215850371333    2.72092906484490
H           1.96941358147687    1.43999690185755    1.37331103456365
H           0.54422189492832    2.46689199603473    2.37667044897209
H           0.84861788889985    1.00201277825471    2.78025387147214
N          -1.67801480126609   -0.89642871231179   -1.31817912443043
H          -1.15966902310584   -0.03003549508772   -0.96045796412088
H          -1.52773831553981   -1.61850223041500   -0.55371615798275
H          -2.65733261332374   -0.71194008150763   -1.50537370611857
H          -1.14897186162047   -1.19886170255517   -2.16687897485457
