    23
        -45.36711350  Gyration_radius:  2.62651931689 Dipole_moment: 3.905
 S           1.02486069985494    0.75190317657940    0.90797940531450
O           2.50852157983320    1.12440509728818    1.27905410456130
O           0.71653163208238   -0.43122107015979    1.69732100131593
O           0.19009683729521    1.89838358951067    1.20411891886255
O           1.03127022004346    0.42687645693555   -0.52826847118539
O          -2.94091021458226   -0.91668732990153   -1.13101692481412
H          -2.40989164659304   -0.09437159298365   -0.98719332178199
H          -3.37511505693403   -0.79635564346612   -1.97701803336429
O          -1.53811761008244   -3.10622198397766   -0.74902824984990
H          -1.96061049682022   -3.50504080603909    0.01398534305234
H          -2.07167304815933   -2.29272674224473   -0.94719968447405
O          -1.45764335760064    1.26472793268891   -0.90939349466058
H          -0.53042102552585    0.98172199313661   -1.01801158238775
H          -1.43602175411255    1.73584742650371   -0.06808183538205
O           2.05683349829793    3.69099535691562    0.75378938522313
H           2.13139644751193    4.28433449273411    1.50451370164458
H           2.61888825817282    2.06253395769211    1.02171764451307
H           1.19124776922855    3.24093567349680    0.84495754319037
N           0.86194282885187   -2.11358796554716   -0.20003877551761
H           1.64435412256927   -2.74930331231338   -0.30638401292648
H          -0.06061530142521   -2.56429974201042   -0.45877058285229
H           0.80334173916139   -1.68126467612802    0.77612780548225
H           1.00173387897740   -1.21158427869347   -0.72315987393320
