    23
        -45.37350741  Gyration_radius:  2.30962962337 Dipole_moment: 7.167
 S           0.27312741158174    0.05463988087170   -1.08184253255948
O          -0.42292106069485   -0.44174214446626   -2.27174754251520
O          -0.33875207764282   -0.82942017889577    0.06586167019921
O           1.70023259994082   -0.13554443067975   -1.10654805506057
O          -0.11257601035095    1.43243943273534   -0.77537126071047
O          -2.37553031629201    1.22885142171677    0.44873994276156
H          -1.53003625690231    1.47949659029281   -0.00960407124096
H          -2.11032567210829    0.94387916899714    1.32697200398240
O           1.84250535410531    1.94868869324242    0.94542260622929
H           1.12746102612192    1.94137418298191    0.27905051107125
H           2.61910492930858    1.62645487444504    0.47997077320102
O           2.96225397797262   -1.49923603457818    0.79975803798516
H           3.10931130856780   -2.39080339501813    0.48233689927258
H           2.59079128427678   -0.99994821194244    0.04197100041448
O           0.98419808183778   -0.26021721344843    2.14732495109673
H           1.29388682532838    0.64819113310028    1.91594034574435
H           0.16164604156751   -0.63018717664860    0.93946370984652
H           1.76024318491048   -0.82529157160305    1.97009888574596
N          -2.74728971568604   -0.67233429684648   -1.32486866837125
H          -1.74584636083118   -0.59031059350361   -1.82139456592663
H          -3.50075842564330   -0.50878471194495   -1.98522728747364
H          -2.81666903803673   -1.59529176255683   -0.90705353777898
H          -2.72405709130290    0.07509635375294   -0.55925380590699
