    23
        -45.37691833  Gyration_radius:  2.38488862179 Dipole_moment: 4.466
 S          -0.87622063698240    0.18497540901381    0.18412698468632
O          -2.11715430115051   -0.08263466345012    0.85930006955421
O           0.24085709623961   -0.61766582065275    0.72276360776836
O          -1.01233706001868   -0.24649422660650   -1.32174935475646
O          -0.50194699530866    1.59243540171454    0.12450481231445
O          -1.52712090255446   -2.56809696583650    1.49053441906445
H          -1.94960852540943   -1.68518059823891    1.48332325687118
H          -0.58681814316702   -2.35456330753417    1.50016418395407
O           0.93046866483559    1.58905667688172   -2.09956786565541
H           0.46272620832493    0.93259736423356   -2.62369512138387
H           0.30402156973769    1.80530699045197   -1.37479106723366
O           1.52266281506760    2.55471587253763    1.55127531706822
H           1.30824457049596    2.46878091312344    2.48139385989039
H           0.69075011823977    2.36604974063011    1.06307383045441
O          -2.05466604065799   -2.60499116643748   -1.09187005615191
H          -1.40027068973423   -1.16612529522423   -1.30533568643287
H          -1.85144790117874   -2.77803285228883   -0.13552782887879
H          -3.00766284281499   -2.50136637286909   -1.13925881422333
N           2.33280662373307    0.60981001641664   -0.08126147340794
H           2.00609243759266    0.98421596008600   -1.01193175608076
H           1.52249120327361   -0.02150068800453    0.26766706808899
H           3.22345983001856    0.12886485936614   -0.13353865133643
H           2.34067289142086    1.40984274268932    0.59040027582489
