    23
        -45.37350751  Gyration_radius:  2.30962118868 Dipole_moment: 7.164
 S           0.67971641277458    0.84615116846625   -0.26425265383476
O           2.08297692787866    1.09127314751122    0.07816554625937
O           0.55907892487874    0.11960539331574   -1.52863934245163
O           0.22517491961306   -0.16017152017172    0.85560666579246
O          -0.15792075534253    2.01605714539056   -0.20806592421804
O          -2.03367103346203    0.54727885414582   -1.90966694499734
H          -2.11489701116335    1.49004411815996   -1.74186503280240
H          -1.07151969285960    0.38100909598687   -1.95481314882389
O          -2.31633745781225    2.11771607552830    1.34670979726018
H          -1.53416058953626    2.18659628964212    0.75932976773509
H          -2.08434621609317    2.58241007041254    2.15141598884975
O           0.99417400451958   -2.34943484148338   -0.91558212071151
H           0.16539762503725   -2.60912067624240   -0.50505355256601
H           0.81723513076785   -1.45736625578296   -1.31633793823938
O          -2.26935161003352   -0.45391655254165    0.54054486418954
H          -2.55775861404098    0.35986534778453    0.99596022374844
H          -2.35293205257334   -0.23218376989042   -0.41782375206147
H          -0.78470656062295   -0.31910813540779    0.76726074895191
N           2.78067999455700   -1.25746073013997    0.66984182896483
H           2.57704436523174   -1.39903746119623    1.65453385801551
H           2.55060405730896   -0.19019159870122    0.41689815052403
H           3.74638832408382   -1.48621013342843    0.45631001559948
H           2.09913087688885   -1.82380504134232    0.06952293478489
