    23
        -45.37283364  Gyration_radius:  2.32819191128 Dipole_moment: 5.580
 S           0.84460045523691   -0.59096685409254    0.50396089305725
O           0.51586119286764    0.52684696254852    1.42838880212393
O          -0.43092681641139   -0.72016701337419   -0.40807317673894
O           1.97663097947079   -0.26580058765568   -0.32513905541920
O           0.91796204863348   -1.84933206600891    1.20560392793325
O           1.77394636709852    0.18002030868640   -2.93915765979184
H           1.96217229114361    0.00377545904738   -1.99291423327574
H           1.93950716924248   -0.64341513658187   -3.39955573984795
O           1.22462297702193    2.52147987445020   -0.19515935511149
H           2.07197193179220    2.23468099235818   -0.54712630736523
H           1.02651716153869    1.89062610163411    0.52284835123518
O          -1.54875370879222   -2.52669606453005    1.45474710473473
H          -1.77116727998057   -2.74524830320775    0.54608644578564
H          -0.55851732937371   -2.40186128040547    1.44268390497630
O          -0.43152910845840    1.32378674562951   -1.90307065561570
H           0.06813800226743    1.95735737408573   -1.33597533285680
H           0.22853929893491    1.01941960450851   -2.55567233254962
H          -0.47283572001495    0.08981984165791   -1.03485993442122
N          -1.90504141822454    0.01458955653822    1.92178005904173
H          -1.89236901898504   -1.05192595582885    1.75927610422046
H          -2.22271132138950    0.24652137160905    2.85768421195751
H          -0.84363825576466    0.30945611081269    1.77593834481238
H          -2.47297988784263    0.47703295813755    1.21770565312126
