    23
        -45.37350737  Gyration_radius:  2.30949124896 Dipole_moment: 7.165
 S          -0.90660757891535    0.26093872714355   -0.59908817321237
O          -1.81693695371124   -0.58420962633438   -1.37604755032895
O          -0.25125596070970   -0.76629904347734    0.39514170366776
O           0.18645742379230    0.76905250416448   -1.42852362226170
O          -1.55985060471694    1.29437423509708    0.16160944493811
O          -1.27315176121204    1.47928332916281    2.80164933680292
H          -1.45804908288174    1.48481423537372    1.83870701367128
H          -2.03372035953538    1.06907626071586    3.21461990957750
O           1.04268528708071    2.63237754225331    0.25816828532998
H           0.79502447806428    2.05921397853941   -0.49383958929824
H           0.22638242120143    3.06814439218521    0.51768218066000
O           1.87308950583013   -1.17948327921993   -1.56647664100253
H           1.33250836906265   -0.34742831404755   -1.62292282804199
H           2.30133507387364   -1.14299775495536   -0.70734486050959
O           1.14728019431636    0.61765487779510    1.98752154033687
H           0.42724611314529    0.90578432360933    2.58035929820405
H           0.33562619870194   -0.25300130664532    1.06246006593732
H           1.32270123133290    1.40940892826710    1.42452434696423
N          -0.33429733692264   -2.59605198886125   -1.70309527146166
H          -0.47458153743540   -3.09892170503224   -2.57369225394708
H           0.63229466769614   -2.13837157351405   -1.66269045883104
H          -1.05008162323361   -1.73886847660389   -1.60821516363613
H          -0.46409817482877   -3.20449028561122   -0.90050669355551
