    23
        -45.36587570  Gyration_radius:  2.29290632774 Dipole_moment: 0.385
 S           0.33378520882889    0.01333643813304   -1.04172711644287
O           0.58887770926276   -0.20839845758515   -2.55730074489389
O           0.61233678970398    1.41661928239412   -0.76435856112372
O          -1.07901489492354   -0.29401159599157   -0.77132929762591
O           1.19851153341131   -0.87759135566758   -0.27789377436110
O          -1.82995323466026    1.90780305212789    0.34627824017934
H          -1.72801614301951    1.04149943001156   -0.13380539927178
H          -1.21459988711818    2.48104460095271   -0.12617281960060
O          -0.48016680260806   -1.16374197315425    1.67294485116378
H           0.35490455345625   -1.17128581281669    1.14333641773793
H          -1.14667649214152   -1.12113363597336    0.96608180739357
O           1.66114225826181    1.94355640182210    1.52927817042629
H           1.95079774678383    2.85728767215955    1.49612714001449
H           1.40951971722370    1.69307490060923    0.59869284128386
O          -0.59266340161113    1.22583291833413    2.43087002074400
H          -0.55053331869121    0.18462440687044    2.25804791595626
H           0.35552723791122    1.56129048962808    2.21056702550693
H          -1.19427992726893    1.58044156907145    1.64247439581670
N           0.24693481401215   -2.77407121574658   -2.16396996879656
H           0.46597735317514   -1.19006347163410   -2.66536832930343
H          -0.72739478623281   -2.92394483295956   -1.93648694640458
H           0.62397246886379   -3.62848450887640   -2.55317982533288
H           0.74101150738029   -2.55368427172276   -1.30310604309137
