    23
        -45.36587641  Gyration_radius:  2.29165117467 Dipole_moment: 0.385
 S          -0.86935835601325    0.07947925854821    0.66541578586492
O          -0.29114090636614    1.37302010651905    1.00552594654878
O          -1.10965312234343   -0.01270169859356   -0.78258966749036
O          -0.03093730867839   -1.02808254653501    1.10812122984504
O          -2.24332398665933   -0.00611447258873    1.38398192623715
O           1.22106794000991   -1.25672387397611   -1.14474516078972
H           0.36274342133931   -1.02268518029976   -1.53630908964178
H           0.97706663415207   -1.33822005115858   -0.18912329201532
O           0.07322984919021    2.13494425735071   -1.58857974429453
H          -0.48950452503341    1.32749397246273   -1.43823057969096
H          -0.08148847132617    2.64853600680170   -0.78685039212547
O           2.26962757733166    1.43845906931527    1.28771987587771
H           2.48161540950637    2.28689354471189    1.68150931249893
H           1.27901516013656    1.34636121132478    1.33145759584452
O           2.29409291218972    1.01047034394754   -1.20734592956008
H           1.97117115956308    0.00486356077182   -1.23808209623967
H           1.42906317082777    1.55313395394471   -1.46475206930036
H           2.43838600681518    1.20361016175813   -0.20658203239252
N          -2.40727205607084   -2.49737629995208    0.59524458430732
H          -2.51476417517951   -2.48259845396191   -0.41065093211480
H          -1.41290085557394   -2.47201155918718    0.80522153606908
H          -2.54725845571293   -0.93107713453521    1.17892982881653
H          -2.79947702210958   -3.35967413667667    0.95071334375196
