    23
        -45.37036748  Gyration_radius:  2.37970643321 Dipole_moment: 6.239
 S          -0.30555066082761   -0.49349074126628   -0.86890549226815
O           0.26011040558620   -0.95645636068924   -2.13285274288960
O           0.47269584571915   -0.99031296691813    0.26957840593179
O          -0.34724252692649    0.97941090784182   -0.84266012480221
O          -1.73188944554065   -1.03464201815265   -0.76875295004859
O          -1.77378234580224    2.12364534443915    1.06859327531022
H          -2.38065173680978    2.70172785897876    0.60306458252650
H          -1.17422321849443    1.75129972735738    0.38488991317198
O           2.96126716916314   -0.20708297860821    0.03360099410564
H           2.03542131903416   -0.48992610406558    0.24386202862415
H           3.48790080838173   -1.00800978198732    0.05778091966983
O          -0.62327133893610   -1.63295598740582    2.60387622962870
H          -0.12443433948126   -1.37685453488456    1.79920151572110
H          -0.67979369883120   -2.58982602450232    2.58774398147367
O          -2.68146948609647   -0.36000090239974    1.46252727412567
H          -2.04915449439256   -0.80514704724459    2.06858180836968
H          -2.44868766682763    0.59451965480215    1.49277836838631
H          -2.17399322402714   -0.77076628020036    0.13728592532910
N           1.90401026309876    0.95094284175990   -2.07773020822579
H           1.10885161317232    1.42165484118156   -1.58150290359156
H           2.57573460546671    0.62526831266759   -1.33528901415751
H           1.36168558306030    0.06845329163297   -2.38655719346328
H           2.32646656030085    1.49854892764579   -2.81911462293906
