    23
        -45.37350740  Gyration_radius:  2.30954540931 Dipole_moment: 7.167
 S           0.32593302703654    0.71655786108065   -0.79288315677027
O           0.01492466939556    0.76815865170986   -2.22369908351152
O           1.54001312952879   -0.05990691188203   -0.53958737538699
O           0.33562731609874    2.00031317607673   -0.14073201594457
O          -0.86068379323691   -0.13896879841763   -0.21563547118363
O          -1.23547890322818    2.52079948859922    1.94434684027298
H          -0.63517578506419    2.43567731189561    1.17371610558242
H          -2.00869308841814    2.98833556284506    1.62679606667361
O           0.77676484480758   -2.52410688973030   -0.61515649819030
H           0.34355549439228   -2.63212092499391    0.23541723112478
H           1.23101928453362   -1.64156331318650   -0.56518056762142
O           1.91925887455357    0.72798726930037    1.96746851402102
H           1.96401887722310    0.41650843766350    1.04207136115647
H           1.81228574937603    1.68092563042325    1.90375952842266
O          -0.59257923740375   -0.07225611178233    2.30040264755083
H          -0.79371488273596   -0.14933057186177    0.80839006789619
H           0.37706861596695    0.10000793436510    2.36922500756299
H          -0.99803092478716    0.80235266380719    2.45401478112911
N          -0.72090880492424   -1.61713813992133   -2.57266095191624
H          -0.16312747551232   -2.11085732819835   -1.80414007134540
H          -0.40128682372944   -0.54536354233294   -2.50088850572732
H          -0.51687716927184   -2.00202183196442   -3.48957082638817
H          -1.71391298460677   -1.66398963347148   -2.36547363740373
