    23
        -45.36892123  Gyration_radius:  2.39424095622 Dipole_moment: 6.500
 S          -0.21085166878795   -1.06285566484291   -0.55458502488828
O           0.29464460069255   -2.41000227293771   -0.67084306726652
O           1.06371405442225   -0.12865654386092   -0.64071944778527
O          -1.14183353834408   -0.64910565849408   -1.57881028226116
O          -0.73970846824603   -0.80855852534575    0.80710771219360
O           2.63765347875253   -2.27722755733550    0.38329115488493
H           3.10644288117288   -1.75476857071166   -0.27249231039377
H           1.76681680354954   -2.49564608670237   -0.05071347631064
O          -2.88770218136114    0.65009409233873   -0.03267305579063
H          -2.51941327859825    0.20477929864919    0.73960340955572
H          -2.46383646777633    0.17363848342911   -0.77147579358005
O          -1.50759241901451    2.91608227568086   -0.20818190702261
H          -2.07762125209168    2.11838684134031   -0.07418706094442
H          -2.09268784199674    3.60971455158859   -0.51666064117680
O           0.03855542764363    1.72958449879756   -2.04930588771041
H          -0.59061621026273    1.04191841718521   -2.31578093437107
H          -0.44106452872873    2.28597489946544   -1.39280367717831
H           0.79207298820528    0.67110125785625   -1.19263090685179
N           1.41385040966121   -0.75207814848012    2.11659671302255
H           2.02623079400616   -1.37019072512537    1.48271187604873
H           1.35809159832459   -1.12435271958269    3.05919634841280
H           1.75791752617782    0.20329316963348    2.11895922658747
H           0.41693730256942   -0.77112534257106    1.61439700283819
