    23
        -45.36892118  Gyration_radius:  2.39410948068 Dipole_moment: 6.500
 S          -0.76748029468766    0.82025058522408   -0.46932642412328
O          -0.58715065175314   -0.70600707313182   -0.84717102344426
O          -1.11753785550928    1.48041258060261   -1.70437087929174
O          -1.74464775786142    0.90868550497140    0.59090837876191
O           0.58216191474364    1.22918906824218   -0.01129117548383
O           0.08598716325008    0.09051627045918   -3.50381244946731
H          -0.43611398571057    0.72510398774599   -2.93886185774936
H          -0.42293575219155   -0.72385873442515   -3.48029378924438
O          -0.08238063978747    1.35221207317604    2.63227766378443
H          -0.87357616214731    1.29458680372886    2.06377883234320
H           0.60685742795810    1.59761097260874    2.00368700569597
O           0.28447243063639   -1.25145445559113    3.02780326877915
H           0.22054830855145   -0.26725478486127    2.94728558977035
H           0.08526982194933   -1.45495716740701    3.94298784534314
O          -1.65684831463040   -1.70827474782873    1.23595527222504
H          -2.09365187835262   -0.84544741169531    1.30305142440585
H          -0.98393135750864   -1.23510229935001   -0.08517549653631
H          -0.93351829699302   -1.69051938136231    1.90461311327139
N           2.00764224156875    0.06381225638250   -1.73340566997854
H           2.21982922411603   -0.86805322934375   -1.39030994053915
H           1.30317192193443    0.01350131416969   -2.54587466822288
H           1.45095133416844    0.61790320221327   -0.94002125633019
H           2.85288115826299    0.55714465547932   -2.00243375394832
