    23
        -45.37078145  Gyration_radius:  2.32161947503 Dipole_moment: 7.207
 S           0.85639871521778   -0.24851014199218    0.20484320595718
O           1.68744191644832   -1.24215031190849   -0.42156800154150
O           1.73860483465252    0.78792004601095    0.90598860201153
O           0.00585183381621    0.45081000299170   -0.77186394466914
O          -0.01617881602001   -0.88447154309591    1.22862356262151
O          -1.86103689125999    1.04618848219637    1.34819405728354
H          -1.27773482349704    0.26858973033404    1.43439463010604
H          -1.95230675902275    1.18608998115327    0.40097785560547
O           0.19719938771262    3.11010278822389   -0.96846674632539
H           0.08524301562262    2.13767104795622   -1.00083041534999
H           1.04250975873189    3.29460991959678   -1.38044472794717
O          -0.50498586261512   -1.68376659778317   -2.18986292789146
H          -0.41753267090630   -0.81163505376749   -1.73037451617419
H           0.31652829583997   -1.77210610526184   -2.68087807516163
O           0.24132465919246    2.66884212038404    1.69038647708515
H           0.18926904397180    3.12611895685884    0.82642977449746
H          -0.62151794986110    2.20652161076500    1.78327438502813
H           1.16679235423806    1.55454440154731    1.30235033155107
N          -0.19375387379350   -3.09137173607824    0.00962417373001
H          -0.18344728323019   -2.20862671668201    0.67092622334294
H          -0.40775438663780   -2.65766234688375   -0.94599585762967
H           0.76572509416867   -3.43120231029905   -0.00803969323541
H          -0.85663960276075   -3.80650623427459    0.29231161710876
