    23
        -45.37202089  Gyration_radius:  2.35738607948 Dipole_moment: 5.563
 S          -0.58827632079143    0.47350785745774   -0.78233916981649
O          -0.73976441474495    0.17221512332566   -2.19805650989942
O           0.83842500624875   -0.09373105346513   -0.42084340819771
O          -0.61218582334845    1.87225762161205   -0.44129378501036
O          -1.53118803629160   -0.32336933864868    0.02566142881226
O          -1.22568247025804    1.07859361104623    2.27260129963067
H          -1.47560536774927    0.50763425964277    1.52047703775302
H          -1.32552782672439    1.97618132283612    1.94302489994265
O           1.41370429587954    3.14874061519499    0.73155118782765
H           2.00645616998425    3.45398613096866    0.04350360984806
H           0.62243449150254    2.79901614739693    0.27123127418883
O           1.25099677410465   -2.74811578972757   -0.75233040568092
H           1.53722683796442   -3.07735750922892    0.10184973270347
H           1.30234205229783   -1.77309893715745   -0.69791199391393
O           1.38089084067437    0.72749877814357    1.89319315012982
H           1.61769895681841    1.65101919959885    1.66942326112375
H           0.46746429240900    0.79247199392629    2.26197116999614
H           1.09852488923858    0.21457502710882    0.53763309262951
N          -1.22668090921752   -2.23331388605627   -1.61636478621472
H          -1.57399374211600   -1.71808053796853   -0.75494478913675
H          -1.91040939871854   -2.84302861133476   -2.05056182730314
H          -0.99518024824158   -1.34585345346699   -2.18189373215860
H          -0.33167005891615   -2.71174856120031   -1.37558076724575
