    23
        -45.37350740  Gyration_radius:  2.30967225345 Dipole_moment: 7.169
 S          -0.84145042614841    0.20117856081819   -0.70622893327912
O          -1.76358776912960    1.33602807498675   -0.79856741125654
O           0.34029027601843    0.40585240526800   -1.54446481091057
O          -0.33593016183035    0.29145962131514    0.78021006972246
O          -1.45869868341871   -1.08338312988253   -0.91180078404375
O          -1.33209070518023   -3.00517149726568    0.92611801589396
H          -1.45262317691891   -2.35914502844367    0.19840197116320
H          -2.14755677998655   -2.99299315627547    1.42825635516791
O           1.87155202022318    1.95630860663998   -0.16149236729826
H           1.40389431058952    1.37514203994150   -0.81816225233625
H           2.24461076841439    1.35333688337622    0.48668428328396
O           1.22905193179413   -2.09539755550899   -1.47862141356086
H           0.98669345880895   -1.16761816191385   -1.66800376347447
H           0.43440464391184   -2.60264011213504   -1.66527345152292
O           1.06077689468442   -1.78596860065858    1.15516241088923
H           0.24498682311209   -0.53003404009528    0.98241571917044
H           0.32876114721402   -2.40984151879757    1.32206890246731
H           1.33447087072843   -1.98359481188550    0.22743749508303
N          -0.42807209176702    3.05837737101072    0.46716270745057
H          -0.55080362897972    4.01587882453118    0.15312383796277
H           0.56721409185376    2.70841841069402    0.28731873404049
H          -0.65796891309591    2.96058154726440    1.45141714443104
H          -1.07792488091693    2.35322526701709   -0.11316242906177
