    23
        -45.36847177  Gyration_radius:  2.30670232869 Dipole_moment: 2.921
 S           0.28077527208605   -0.33109071598302   -0.92732565269651
O           0.76452788319147   -0.87136731512997   -2.29482870764384
O          -0.76392991882992   -1.20321160741878   -0.41307232979033
O           1.44181461449390   -0.32717996099705   -0.02133329688566
O          -0.20155619792274    1.02801731421517   -1.14697068613912
O          -1.53517312634156    0.00313818085214    1.78693400834564
H          -1.32450756151193   -0.62446604773540    1.05458979551547
H          -2.07268212226233    0.69541702398206    1.33566807651124
O           0.70300744219830    2.93107078966204    0.44510684124442
H           0.33086042322613    2.34269332714253   -0.25226501263871
H           1.54892529617146    3.23944798299972    0.11505190901429
O          -2.60371849110598    1.57033241200043   -0.06485652983963
H          -1.77267671129929    1.45456617208253   -0.56715055791239
H          -3.28707521633761    1.13782670900189   -0.57946332731494
O           0.76324343502905    0.91616951083755    2.01402173091673
H          -0.25853764718683    0.56031485674798    2.05519829765982
H           1.15970277570019    0.33058657150427    1.23304128887037
H           0.73330616379686    1.83763589139329    1.58295482147549
N           1.27249979715121   -3.09230182393960   -1.05416300675993
H           1.37893777047360   -4.08338714423460   -1.22989709378857
H           1.05539967302063   -1.79814822447095   -2.05772909830626
H           0.38374411017712   -2.92649148009997   -0.59141196155732
H           2.00311234608007   -2.78957241240524   -0.42209951827622
