    23
        -45.37093058  Gyration_radius:  2.33581259494 Dipole_moment: 6.794
 S          -0.98503488125980    0.58020711001417   -0.36554606574346
O           0.29040294060723    0.51882799427107   -1.09175107246231
O          -0.93854102383008   -0.34774927177435    0.77548057166672
O          -1.19170295443762    2.00540274741325    0.15221526013724
O          -2.10386110482902    0.25913929281062   -1.24217558499592
O           0.98267297868946    0.05668409885956    2.61061742206165
H           1.76831243187744    0.02462626733502    2.05352113241926
H           0.23945533452356   -0.19559771934570    2.03011618176831
O           2.45431612750328    1.12726571294112    0.27205278909387
H           1.66686655236334    0.87093357123647   -0.26110955873259
H           3.16102725501866    1.28144807348202   -0.35596324681063
O           0.38828217426473   -1.87475135047746   -2.16392951023759
H           0.38297151676709   -1.73447214186931   -3.11269210975126
H           0.44831971110787   -0.97116068709504   -1.76378372408578
O           0.68201355034778    2.56312286025256    1.77792779847333
H          -0.46587437722345    2.27371942809251    0.82623829273846
H           0.68158150185204    1.78168438798605    2.37704661196563
H           1.47113280911673    2.41633685661279    1.22891702719169
N          -1.81582581906582   -2.19561183979073   -0.75234741030059
H          -2.46011788550358   -2.97255836375350   -0.65638088498061
H          -0.97715424622144   -2.38730959332598   -1.35651709298383
H          -2.22650051249080   -1.27847227506057   -1.13588057553967
H          -1.45274208916670   -1.80171516882183    0.15394375913228
