    23
        -45.37824518  Gyration_radius:  2.39123999428 Dipole_moment: 5.933
 S           0.90813485868663    0.05558882829736    0.28580091500500
O           1.23643461881315    0.08353213913895   -1.13486221444676
O           0.82199993341050   -1.29229574476022    0.80803145687934
O           2.01071821093558    0.81411330312505    1.06110981953866
O          -0.36408728473328    0.77435359795482    0.52384600064609
O          -1.22331268424323   -2.44203644582717    1.98522101756944
H          -0.98565309080368   -3.35336493245985    2.16306698173365
H          -0.38936547498071   -1.99310069374600    1.70818429091934
O          -0.12600663095639    3.33685423600179   -0.12848998956101
H          -0.30103007346596    2.39764730730265    0.09560330899298
H          -0.19255975143640    3.82274848030883    0.69545429383244
O          -0.23235532487542   -1.95348316679650   -1.83508724649906
H           0.35050538007589   -1.16055428813898   -1.73489170414864
H           0.25187521202865   -2.65439042658846   -1.39095450243917
O           2.34573620794550    2.51982126742871   -0.82218165038755
H           2.09873543802768    1.77176366767817   -1.38778959770161
H           1.52175069821432    3.03777510981472   -0.70643392723732
H           2.28543037321600    1.55721201491078    0.44141632141506
N          -2.04924604451636   -1.06967356390647   -0.13585091925808
H          -2.99464574262824   -0.83672488439142   -0.41882968251218
H          -1.47282891789084   -1.49865825262165   -0.91807600520039
H          -1.48552945335228   -0.20711248346489    0.15650395473837
H          -2.01470046749690   -1.71001505929611    0.68920910807442
