    23
        -45.37824521  Gyration_radius:  2.39122923096 Dipole_moment: 5.933
 S          -0.53297986693667   -0.58221074794256    0.53582874255814
O          -1.44837278426708   -1.82477897493560    0.63675946399227
O          -1.25016602172358    0.56199347596352    1.05870233136369
O           0.69834617718349   -0.85168054756361    1.26937579434091
O          -0.23117276546298   -0.37950809299938   -0.89934715634000
O           1.41245766355005    1.63315781071963    1.60512054051891
H           0.71725061001612    1.91513258294167    2.20527609670920
H           1.29196251603960    0.65321404277623    1.54428385457991
O           0.79227770174079   -2.58696003425464   -1.96143161876035
H           0.13614181863782   -2.90521493516252   -2.58398731968151
H           0.45777861029739   -1.72543724311149   -1.63148620660367
O          -1.94402923153837    2.75252417124121   -0.21053577734842
H          -2.35588024190510    3.34152822863666    0.42355056018947
H          -1.85421630706786    1.88223237326441    0.24586194794407
O           0.53153933933469   -3.45111710032781    0.57705901212586
H           0.77278618039449   -3.36271321396335   -0.36877819970771
H           0.99260394420966   -2.72573366468986    1.02621538209059
H          -0.81254305537722   -2.60410528948288    0.63393165926428
N           0.54796779873431    2.08338788215583   -0.84833662795040
H           1.14437533254291    2.45802078108803   -1.57777176139421
H           1.02094291174451    2.05052206781630    0.10212110347028
H          -0.35418339615182    2.60153713482174   -0.75053596380551
H           0.26711304596768    1.06620927164790   -1.03187585729409
