    23
        -45.37824523  Gyration_radius:  2.3911699065 Dipole_moment: 5.932
 S          -0.52195893667534    0.79820672297649    0.00404696445182
O          -1.72700011629547    1.59214262931147    0.56054276867613
O          -0.44508487671455   -0.46806331044214    0.76731966226923
O          -0.76376766011953    0.51466793103365   -1.40588603180427
O           0.67998894253360    1.57808565764184    0.21411556284679
O          -2.75868761872135   -1.76593131096872    0.66265854340613
H          -3.10801889743990   -1.74851095655540    1.55536650965027
H          -1.86443057815800   -1.36503693473363    0.71348318461827
O           2.77672827702798    0.95540064614407    1.66535551691486
H           1.94455030842661    1.29433803310577    1.25734331242898
H           3.42620613999196    1.65186488433941    1.55707624509873
O           1.72063932067523    0.08100684626132   -2.06720370839263
H           0.74247024725038    0.19432139697780   -1.97339100695238
H           2.06837700479068    0.96953037211991   -1.95484112707774
O          -3.40579274527007    0.32719660083886   -0.90566042966155
H          -2.52093923565067    1.21800030493158    0.06919195780706
H          -2.65902302004082    0.28355923369391   -1.52282083362916
H          -3.40131280368650   -0.53252187764443   -0.43505163274047
N           1.99191558808002   -1.15327043401318    0.25055756679362
H           2.02404327730147   -0.78019477518353   -0.74345548614325
H           2.54030704172233   -0.50847468295623    0.86327818533330
H           0.97107010828750   -1.01654118008586    0.54444475980557
H           2.28972022265752   -2.11977579679033    0.32352952629304
