    23
        -45.37369010  Gyration_radius:  2.38626156196 Dipole_moment: 5.390
 S           0.18374310104184    0.91621591328721   -0.73029335701475
O          -0.95825126625535    1.40301105136884    0.27049888065959
O           0.74314461116476   -0.27845441212206   -0.08740052455113
O          -0.52690642128187    0.56863952398835   -1.95271084282407
O           1.13050319567818    1.98737118858537   -0.86734358697542
O          -2.22868134443689   -0.91373488095755    0.86140548172463
H          -1.95339637876204   -0.00267122277584    0.63781170107108
H          -1.69704844558339   -1.16063617005577    1.62186868331917
O           2.33411513582481    2.88696777700609    1.30779226042527
H           2.22998512255027    3.83977292981758    1.29941923218333
H           2.01469910033432    2.57495948534184    0.43189808352922
O           0.99474063632277   -2.68950850061116   -1.08256215282893
H           1.41244031460934   -3.24449725785285   -0.42230008714580
H           1.06689829723635   -1.76378768476398   -0.74932560715398
O           0.64041021931214    1.04161018508530    2.23648014331037
H           0.95348966281549    0.34966030813414    1.62995143274316
H           1.30798030429159    1.75594164997240    2.15864632700090
H          -0.45682463969693    1.43424531965293    1.13718500564632
N          -1.46300097331140   -1.77425968984715   -1.55509910338160
H          -2.12157151711233   -2.13708763503703   -2.23511762940439
H          -1.09982964164445   -0.78662961610619   -1.83333180271680
H          -1.89557973584007   -1.63660678994218   -0.61233026655917
H          -0.61105933723859   -2.37052147216523   -1.46514229105216
