    23
        -45.37369010  Gyration_radius:  2.38624220529 Dipole_moment: 5.389
 S           0.74816340028497    0.81985180218217   -0.41862536202563
O          -0.10759056465009    1.85788039622362   -0.97569025103859
O           2.11350148850621    1.21264884865689   -0.20858943815134
O           0.13024191719613    0.20350596573597    0.76112603121254
O           0.73922135065753   -0.33645351894834   -1.51659385553086
O           3.84220487885601   -0.62475389766696    0.58195281624237
H           4.59222528639843   -0.56296736618242   -0.01164507528878
H           3.27282958925782    0.14972649810491    0.37561768087782
O          -1.93938168672218    1.04008297212850    2.13382984824665
H          -2.08683991163299    0.42862552403032    2.85688575158769
H          -1.06657742420642    0.79832047800274    1.74279324912207
O          -1.76862030983672   -1.32963730713732   -1.28350476474120
H          -0.89553416196058   -0.98956261543206   -1.56255432575359
H          -1.58109936450388   -1.99397838914386   -0.61613709043289
O           1.57078740394326   -1.99125911795347    0.25015773876187
H           1.16297202329125   -1.08938850116015   -1.00956601326939
H           2.50206682169917   -1.73616256034738    0.42211013486157
H           1.04780908833866   -1.39117089185139    0.80795514125941
N          -2.49841054829372    1.11437050001778   -0.47080203052528
H          -1.52464739825880    1.53023555887159   -0.72300437506651
H          -2.44915161696949    0.12072509504262   -0.79507423181020
H          -2.55225850583124    1.13973015893478    0.57122119474669
H          -3.25191177556910    1.62963035789631   -0.91186276328060
