    23
        -45.37729897  Gyration_radius:  2.38260520119 Dipole_moment: 4.759
 S           0.83943608346424   -0.26513868241664    0.22242783996619
O           0.92848523963282    0.87149470895804    1.11516980366936
O           0.29416575012654    0.13214358863493   -1.08893653524357
O           2.27515651984146   -0.79447679497291    0.00614751625984
O           0.02942548932472   -1.34395361048134    0.79330803514762
O          -1.78574105663164    0.23547538357351    1.82539899483165
H          -1.19383818060743   -0.48034705313063    1.49017431782192
H          -1.26796327111252    0.65783592539870    2.51578694398597
O           0.35382214213936    3.37993490493300    0.60920876647796
H           0.50507821863569    3.88915291760755    1.40687813288989
H           0.74460472098875    2.48934283735006    0.77618963077328
O          -0.55359872152478   -2.39455261839593   -1.56807117544275
H          -0.39834590548889   -1.51025346933022   -1.92803339224580
H          -0.56389233685246   -2.23299368496818   -0.60529208251608
O           1.99459317824141   -3.02968736534907   -1.29252075095254
H           2.02906905442499   -3.73861110735860   -0.64656463948365
H           1.04281459508355   -2.93477796069237   -1.55039652898277
H           2.23577500903177   -1.63384424053667   -0.53541287004437
N          -1.54053524953162    1.76318170879721   -0.32545276703852
H          -0.81338562270958    1.12355860096507   -0.79660256691174
H          -2.32037972948512    1.98174627737983   -0.93549976615709
H          -1.82783290750386    1.22470878596861    0.54053453997616
H          -1.00691301948338    2.61006091807139   -0.02844144677919
