    23
        -45.37729906  Gyration_radius:  2.38270720144 Dipole_moment: 4.762
 S          -0.26773671535123    0.70491673968464   -0.50562614926223
O          -0.53134403359803    1.52530510420598   -1.78854315931226
O           0.62310893874052   -0.41779106859793   -0.85337419300641
O           0.36058504746468    1.59127645269367    0.45167552782839
O          -1.54836036833163    0.19130472647318   -0.01342523513212
O          -1.49108054213586   -1.94893029694693   -1.57428375188742
H          -1.77212986701587   -1.32578819725527   -0.87724040157710
H          -0.52944993050266   -1.84471798332484   -1.57459560928069
O          -0.73799659667632   -0.16383098541706    2.45054155471684
H          -0.62546005468034    0.75009527868451    2.72468333898036
H          -1.18201404542755   -0.09427437935226    1.57119845932463
O           2.77949389508600    1.44260665216071    1.45387710970368
H           2.89467549251445    2.16839452971255    2.06897182637741
H           1.94095776471976    1.62789000452356    0.96773048472567
O          -1.97946781499090   -0.01406593893674   -3.30340710658284
H          -1.04622292711891    0.96361256743611   -2.43563704653855
H          -1.85581339263754   -0.86595590480417   -2.81314129628626
H          -2.89538452442356    0.24096709427419   -3.17275107078413
N           1.59701233287752   -0.94003636858711    1.46792122879507
H           1.29131850110238   -0.83505094126739    0.44055505755105
H           1.99987318333877   -1.84975685457354    1.66338564679752
H           2.26496552507181   -0.15514484604408    1.63520650401310
H           0.71047012198591   -0.75102537474711    2.01627830080685
