    23
        -45.37707435  Gyration_radius:  2.31854016419 Dipole_moment: 5.128
 S           0.75956981756259    0.94097053032865   -0.21226536063280
O           0.63665142349247   -0.43699906741605    0.29669721398761
O           2.24356325853661    1.16284786774874   -0.59277857012724
O          -0.07167968410755    1.11164013148586   -1.39451747742455
O           0.44897354683639    1.90003547308658    0.83827768924664
O          -0.33058230707668   -1.05586309595201    2.65928024726739
H           0.08231971837138   -0.94544181320230    1.76884917487750
H           0.38352287130112   -0.95363529726104    3.29045750596481
O           0.17514354230226   -1.51400624683504   -2.06420204503794
H          -0.14378280972888   -0.68369693029599   -2.44037658183273
H           0.28855110352292   -1.30647499562732   -1.11314684450594
O          -2.36098454345922    0.13163473058476   -0.62226078040486
H          -1.56978097885499    0.58110783281970   -1.01308721648177
H          -2.22941802769454   -0.80654428830706   -0.78306119716197
O           2.74622820843352   -0.83891954796204   -2.19619649869099
H           2.48698797236221    0.46517971787575   -1.25942963293109
H           3.24477366246026   -1.49687024040450   -1.70715208422446
H           1.83810929265149   -1.20927909667535   -2.31403855481595
N          -1.76061254370739    1.00430353761287    1.80004219619014
H          -0.87752475443523    1.52316642959143    1.47094763039089
H          -1.40129381981114    0.18836129432281    2.35194449561634
H          -2.39098113606672    1.59833567596516    2.32687062258194
H          -2.19775380288384    0.64014740853402    0.90914604813916
