    23
        -45.37719478  Gyration_radius:  2.33982501002 Dipole_moment: 4.173
 S          -0.02606455942418   -0.44100992182443    1.06115825845516
O           0.94709012956932    0.04273321335357    0.07800342354065
O          -0.30422864004331   -1.85727601071389    0.86660805049656
O           0.59464654679938   -0.30663645970725    2.47242542713816
O          -1.24242803016211    0.37229645924674    1.01328194978749
O          -1.89730324938219    0.28252644775907   -1.52288067211341
H          -1.79548036845274    0.32033859482965   -0.54081425821825
H          -1.43253709742467    1.05262461577797   -1.85940212927240
O           0.06125362713450    2.55740755842139    0.30067622071886
H          -0.68023519791355    1.97975264701938    0.56338356853826
H           0.70451259511545    1.91934864218930   -0.04581634019927
O           1.81632021392588   -1.29119463430862   -1.99974342333609
H           2.58130336802150   -1.79394402702046   -1.71532113804090
H           1.58357969267540   -0.70659199596544   -1.23688627875173
O           0.87743058067863    2.26591987643309    2.80627861457048
H           0.16507015201384    2.57681633944967    3.36908686441307
H           0.77197165451618    0.65880187039306    2.64234901088609
H           0.66598802613179    2.57464661469623    1.89088249857100
N          -0.69220590667937   -2.07242878072951   -1.66112305988422
H          -1.24916459506288   -1.18991674827767   -1.80992037687689
H          -1.14671757445596   -2.88843936209375   -2.05498898563114
H           0.27989958055821   -1.92290382201728   -2.02623124646207
H          -0.58270094813289   -2.13287108690813   -0.59100597834170
