    23
        -45.37719479  Gyration_radius:  2.33989342809 Dipole_moment: 4.176
 S          -0.00992958868686   -1.01376038494435    0.54240834382275
O          -0.49215269104769   -1.96113640850309   -0.45306806094669
O          -0.77933264440064    0.23255667283849    0.49715028297157
O          -0.23251183110236   -1.67735506649413    1.92265119870215
O           1.41908297911161   -0.73343887244562    0.39100392881425
O          -2.52788511741585    0.88463622009200   -1.33839255227783
H          -1.91402568676265    0.73533334701737   -0.57763120601582
H          -3.37859251935287    0.54748423619382   -1.05295106428641
O           1.24001344829322    1.62598441428215    1.56588568484576
H           1.63767638734072    0.84569960118561    1.13490899699122
H           0.31887117246380    1.57759969149109    1.26619360870753
O           1.50256394036503    0.68816997656094   -1.80909915306616
H           1.60194840543196    0.09910494512331   -1.02207132807284
H           1.42123995407951    1.57749536751787   -1.45597157161532
O           0.83083684450514   -0.00240504821482    3.61772051848704
H           0.11295145614852   -1.05886117969349    2.62299953321019
H           1.68939518558866   -0.34254719836039    3.87868031471575
H           1.00422029782676    0.75850868173182    3.01032354078889
N          -0.69745218653546   -0.56098688394789   -2.59422160519903
H          -1.52117660030394    0.04450050745099   -2.35857948600441
H          -0.77170479780088   -1.00157388727204   -3.50415470023430
H           0.18266881291655    0.01031882066658   -2.49376784615093
H          -0.63670523067382   -1.27532755224399   -1.79001738812362
