    23
        -45.37719478  Gyration_radius:  2.33991830015 Dipole_moment: 4.176
 S          -0.59899586597937   -0.06955667975689   -0.97876554025210
O          -0.80767752534393    1.31381065203456   -1.38364420628301
O           0.72351875053187   -0.56466873526215   -1.36516338685629
O          -0.79968185883740   -0.23026220530045    0.46400732596647
O          -1.66844757157412   -0.90834810961192   -1.71874820960089
O           0.76169217071879   -2.40223731802615    0.53296855091351
H           1.04530685163600   -1.88143212525457   -0.24225807095452
H           0.14587957540319   -1.79538707082041    0.97264286073521
O          -1.10957111382570    1.71134151058818    2.19145095992979
H          -1.03208552322481    0.90019332340383    1.63102606707184
H          -2.04740066527036    1.90442103311479    2.23686972223319
O           2.32426238930410    0.73292952518052    0.25433636765440
H           2.37218113501389    0.12161783048411    0.99344678463656
H           1.83038422525665    0.25309548536204   -0.45427310498610
O          -1.09660948181857   -3.37519425728830   -1.08856216845149
H          -0.41468592538324   -3.21279582494619   -0.39096726272575
H          -1.53193370335097   -1.86557836410361   -1.47904955701312
H          -0.63721729192120   -3.77677750728117   -1.82919529034828
N           0.52237379582937    2.67295071912586    0.33985352532935
H           0.76495187384139    3.64241521554772    0.16987996237239
H          -0.06581741894516    2.53737041782751    1.19805607862593
H          -0.05129009420914    2.24062030358116   -0.46309982422365
H           1.37086331214001    2.05147216142357    0.40918839621073
