    23
        -45.36597398  Gyration_radius:  2.31862963246 Dipole_moment: 1.687
 S          -0.44583280056539   -0.29228831304258   -0.82207658495324
O          -0.24038796281034    1.15670686114031   -0.97805260193168
O          -0.62293209321507   -0.63092758322243    0.58501065588449
O          -1.76114098322749   -0.61482367908721   -1.58086183298606
O           0.64276177291264   -1.04951214200379   -1.41736718872219
O           2.80691263753483   -0.46518699951653   -0.11572546704147
H           2.00014524225112   -0.79310427451401   -0.59669564490850
H           3.51337464229706   -0.45225728798580   -0.76500790773950
O           0.08238308629193    1.19595167554844    2.27239266266215
H          -0.21833949296879    0.37418483534148    1.79339224238674
H          -0.61997176722544    1.84609345562664    2.05473085224222
O          -1.61541977427428    2.62451783335529    0.79843949929823
H          -1.27167994150384    2.08050170332276    0.06140581880995
H          -1.71181911330209    3.51427277441274    0.45579688228719
O           1.71136659174370    1.75050331209795    0.51916470556968
H           1.07058882892694    1.54883490153810    1.44167982425737
H           2.28506425285207    0.91990375865207    0.37440483192314
H           0.99088926537714    1.65758182749987   -0.19714505127946
N          -1.35609667243050   -3.04726496488341   -0.75894374736754
H          -1.19887628066260   -2.64657292618656    0.16031129723804
H          -1.73170071607038   -3.98176139938212   -0.65481797505963
H          -1.85951187718404   -1.59165903326676   -1.42103561191193
H          -0.44977684474862   -3.10369431545265   -1.20899967865794
