    23
        -45.37469717  Gyration_radius:  2.38559751949 Dipole_moment: 4.758
 S           0.51557920859026    0.96287762451253   -0.19041776521851
O           1.12312856419847    1.64134326897945   -1.30192603206245
O           1.06632725607000    1.32934451743432    1.10867670997643
O          -1.01244451146325    1.39671838576448   -0.12323806910722
O           0.47696395025887   -0.49514091469122   -0.35190467314748
O           1.67133006763108   -2.27205650717571    1.16365619928553
H           1.23824154099213   -1.70357352061365    0.48270607356373
H           2.60785104466739   -2.25527152829955    0.96054448742350
O          -1.97720546864774   -0.55603529552909    1.50650780298608
H          -2.02882271092381   -1.25206302426978    0.84622174027813
H          -1.76886156147659    0.25817290770764    1.00954570163292
O           0.14637443956382    1.31412209711802   -3.73616072642013
H          -0.01158567158100    2.19276439554275   -4.08514407881654
H           0.64343510573059    1.44329163783753   -2.89814483448624
O          -1.47862612130531   -0.09138501693931   -2.14818386324013
H          -1.05397649642701    0.35121111861469   -2.91419606130910
H          -0.76809462482341   -0.61312635812321   -1.74129461261538
H          -1.36422406862616    0.96629768722110   -0.95782236419640
N           0.39663756362923   -0.53511457069052    2.71922062110597
H           0.72756070876387    0.31846976709950    2.13503488270233
H           0.95051705007634   -1.34713113447757    2.35906478010343
H           0.50688225395399   -0.39018532334274    3.71635414276812
H          -0.60698750870859   -0.66353019362279    2.44089992868942
