    23
        -45.37469716  Gyration_radius:  2.38564366853 Dipole_moment: 4.758
 S           0.05027209414041    0.27527911628596    1.07295380923988
O          -0.68544570160736   -0.78979664658245    1.74345755785437
O           0.72638139750491   -0.22925268778764   -0.12772354908359
O          -1.06936756496148    1.25728562148308    0.51650409721824
O           0.91545908060650    1.02990248947279    1.93712239935948
O           2.18186757505174    3.15322412284728    1.00170635196408
H           1.98262526842008    3.87391853546478    1.60134371042303
H           1.83365132654053    2.34131674339720    1.43256493831615
O          -1.99819072229321   -0.22948505893144   -1.56335437263775
H          -1.28619185791842   -0.03698727948550   -2.17908939136895
H          -1.85315581886014    0.36703284150167   -0.80412550419688
O           1.07804047573903   -2.74296630155542   -0.78981159362490
H           1.07318118236706   -1.77138534639045   -0.61558845490963
H           1.76508087271812   -3.10541044475234   -0.22834381229996
O           0.67595287454932    2.29892004681846   -1.03296644996418
H           1.01733130503913    1.39018768299937   -1.01491939133499
H          -0.51732082017365    1.85451714139157   -0.07010733220431
H           1.28575947659571    2.80481119703312   -0.45410969193068
N          -1.46114319716945   -2.38636394949067   -0.09177850457418
H          -0.55653384200129   -2.79100930554750   -0.42911456398683
H          -1.19913177484020   -1.77786197528757    0.76867103708947
H          -1.80456035240585   -1.69364018912514   -0.80132660379664
H          -2.15456126690223   -3.09223632370777    0.12803530441306
