    23
        -45.37729925  Gyration_radius:  2.38304921244 Dipole_moment: 4.764
 S           0.24990849771137    0.85586454254827   -0.16523774340299
O           1.34024474428302    0.10550416801557   -0.79305159396299
O           0.75527252767779    2.28247005123469    0.14698679894807
O          -0.89139073259189    0.98614390171639   -1.04688914015439
O          -0.13268665027576    0.21562666200774    1.10693704968425
O          -3.38825086383073    0.33736202810609   -0.57653214245210
H          -3.90219130972220    0.53357965509747   -1.36124158441684
H          -2.50453797726208    0.75290972401613   -0.71852879959355
O          -0.21243406146479   -1.66389422841231   -1.93917051991911
H           0.49435036753126   -1.08326248394209   -1.56707218019511
H          -0.64517636300368   -1.10922903072243   -2.59351410746873
O           2.41288422573609   -0.61568597139290    1.51934295191902
H           1.52871902695605   -0.50393145555925    1.89531939355394
H           2.24393691846924   -0.56242468716391    0.55914935551491
O           3.00203538091340    1.95607599467411    1.41443335763591
H           2.92493430117812    0.98750744277416    1.60797792457857
H           3.70611908328851    2.04612076395396    0.76859507775226
H           1.59799962219916    2.22216388425563    0.68125727407137
N          -1.73789709412710   -1.58869560709949    0.22604130048845
H          -1.10795412310530   -0.88456444252106    0.74331440784646
H          -1.94222102867714   -2.41104103433773    0.78287990728218
H          -2.59397086799243   -1.04994690517885   -0.03271633622781
H          -1.19769361388257   -1.80865297213498   -0.65828065148387
