    23
        -45.37811668  Gyration_radius:  2.37703165627 Dipole_moment: 3.945
 S           0.09712412974819    0.26925444659624   -0.86945538599125
O          -0.37222016565152   -1.01062495970507   -1.35651677342734
O           0.82164458611154    0.96894598296935   -2.04244117417625
O          -1.00240004565750    1.12573415554426   -0.42360151893619
O           1.07487782404510    0.09065016253786    0.22264370911000
O          -2.39040381914512   -0.81183758298913    0.67435160304690
H          -2.59262831316218   -1.34872249069637   -0.09710695719328
H          -1.99958992473905    0.01220473681270    0.29920350326739
O           0.53465842521959    2.56339690522587    1.18219343487601
H          -0.26936285908546    2.21416938589419    0.75252319203630
H           1.11521382825454    1.78979922609742    1.20148258111513
O           0.31527685697414   -3.39665965511070   -0.49962546981367
H           1.17202859958395   -3.61254567659877   -0.87147456110554
H           0.02116238144369   -2.57796602807095   -0.96554991002832
O           1.26493693312959    3.39397477679411   -1.21655978568784
H           1.05977341233852    1.90002190292967   -1.76752805983499
H           0.54550418259737    3.93939357716872   -1.54203380941614
H           1.09444498204930    3.25758033840691   -0.25048678228420
N          -0.09331917087719   -1.77230061097034    1.55869175730895
H          -1.09407414240433   -1.47015271533407    1.37273719388050
H           0.09961587145035   -2.61637829880017    0.96862654412211
H           0.50062317683038   -0.98798959772850    1.12640479266967
H           0.09711325089305   -1.91994796106271    2.54352186636951
