    23
        -45.37811687  Gyration_radius:  2.37684469802 Dipole_moment: 3.951
 S          -0.67379929873598   -0.04636178564369    0.61938768194119
O           0.51863450487162   -0.88835211884996    0.39688852525321
O          -1.31281134496582   -0.47672766618999    1.95981410779792
O          -0.28309681486597    1.36024346837176    0.71999255877338
O          -1.66071569986980   -0.26510043190289   -0.41680368556074
O           2.05578285001257    0.81514563006188    1.83386882913353
H           1.97655212358274   -0.05147943466791    1.41136117353289
H           1.33581689064116    1.32284191750968    1.41324454519631
O          -1.48220916384631   -1.88093250739252   -2.47981722005888
H          -1.66318584918771   -2.77257967376349   -2.17804344485439
H          -1.71408179072071   -1.29124035065044   -1.72325129755084
O          -0.29661039743658    1.80268852674212   -1.86649876050840
H          -0.26141389826910    1.80002277852550   -0.88101987614355
H          -1.22546403593138    1.65993084081568   -2.06929318170131
O           0.34962329232227    0.32601163534856    3.79023944688164
H          -0.69460274122691   -0.23277999731605    2.70636554019185
H           1.13467005682098    0.50490701385745    3.21350263675739
H           0.04053727012853    1.18138985481810    4.09622629746367
N           0.80690161019744   -0.58212330757230   -2.14139834725455
H           1.70205191000271   -0.72407121664887   -2.59583394999826
H           0.46930381753563    0.42288024412051   -2.19961603574589
H           0.04749414260271   -1.19538104672427   -2.52216011066198
H           0.83062256659856   -0.78893238279646   -1.08715544297158
