    23
        -45.37202094  Gyration_radius:  2.35730639385 Dipole_moment: 5.558
 S          -1.01241350277542    0.02297078360437    0.39647712798954
O           0.44471873282560    0.60029642745324    0.57223195609999
O          -1.52218966313134   -0.06878010055734    1.75664993167721
O          -1.73960170824925    0.90546026168823   -0.47870812725939
O          -0.82320924998721   -1.32090688705947   -0.18245158516500
O           2.20480859016016   -0.86145105176062    2.01814920902649
H           1.66675044628145   -0.16914574077002    1.58524631194947
H           2.95479217650999   -1.01510929369249    1.44035432716808
O          -0.66664558200769    3.04254600322300   -1.65719847014212
H          -1.17747673350997    2.30950375455713   -1.25455884460343
H          -0.74295556290732    3.78143293966628   -1.05212783660334
O          -0.52878913352026   -0.49650364686109   -2.70076404446698
H          -0.66405839103493   -0.94705336135000   -1.84465059462142
H          -1.28241871986381    0.09387628739710   -2.78899370427371
O           1.27727672684206    1.19101662973120   -1.72564875752963
H           0.77859149734182    0.52379660667626   -2.25540301077920
H           0.77806971996461    2.02386593104561   -1.85316059819096
H           0.83271453276282    0.84899745809933   -0.36023267523997
N          -0.13857174306408   -2.14622153559079    2.11719876846069
H          -0.32665634830781   -2.17991895952617    1.07258087637191
H          -0.76073368953462   -1.28677700415197    2.30696221153605
H          -0.40839685672102   -2.98175856166523    2.62396621068048
H           0.85639446193507   -1.87013694016387    2.26408129791922
