    23
        -45.37164942  Gyration_radius:  2.36933183966 Dipole_moment: 6.473
 S          -0.88067920654837   -0.36752400362846    0.29294382328446
O          -1.55089106178815   -1.59488470319299   -0.12507421815902
O          -0.99528347257511   -0.06321636157795    1.69591955380317
O           0.63850663009962   -0.63637985503728   -0.02810012792239
O          -1.26926443267912    0.75842571564786   -0.57144854527483
O           1.03860584958259    0.13624555400415    3.40371557384599
H           0.21216767928502    0.05556043303778    2.88340229828894
H           1.21741622561025   -0.73723985518407    3.75433116539557
O          -0.28391643543577    2.65346608154182    1.02933510820378
H          -0.71814601036758    2.08808233919540    0.36199316132373
H          -0.67595796319277    2.39113571851742    1.86702459570083
O           1.19236237311694   -1.33496874840381   -2.58604473329656
H           1.14416482955716   -1.04876538561496   -1.65129894603780
H           1.69569914281637   -2.15077384069017   -2.59147553462269
O           1.93631173436320    1.19190638162545    1.09840704979182
H           1.22203495988990    0.11239046569076    0.40685458386316
H           1.27452337116721    1.92092047632702    1.03231427391355
H           1.87391644059927    0.88755633573206    2.02711541707853
N          -1.43296646936928   -0.86326402092133   -2.52655443227160
H          -2.14460564521167   -0.94706722528670   -3.24352162361998
H          -0.47133163249715   -1.08616129460779   -2.86005108890163
H          -1.41348732343250    0.07673044473287   -2.04237925163659
H          -1.60917960299580   -1.44217466191519   -1.62740812275276
