    23
        -45.37344443  Gyration_radius:  2.26853052943 Dipole_moment: 5.112
 S          -0.84211968445141    0.95191454369440   -0.36306744518680
O           0.43587147315390    1.11121112434212   -1.04435790078756
O          -1.81244883193874    0.25508959581075   -1.20519064631040
O          -0.58379297413687   -0.12198528389462    0.79454051981265
O          -1.31751830755613    2.15627567799197    0.26338365734980
O          -2.46384319451648   -2.07510843574297    0.13723427772551
H          -2.19191968493732   -1.85272981156749    1.03138910419803
H          -2.57774355388896   -1.21395227878834   -0.30385864762953
O           1.11987143477341    2.98518669013666    0.85307445694442
H           0.15351702702786    2.85094372559326    0.73269997305960
H           1.47111421482304    2.91448547158559   -0.04018572133877
O           1.91667718963294   -0.95956332634176   -0.57591136712653
H           2.11730997772480   -0.86248456114264    0.36037195652946
H           1.52849768238797   -0.08676713195274   -0.83364329167163
O           1.63888960885437    0.66357641559539    1.93326891091991
H           1.57187418641108    1.58456456745804    1.55070814576651
H           1.60410347380585    0.77473579124690    2.88530405955935
H           0.22907600224347    0.15468419386035    1.28365713237818
N          -0.37957171356436   -1.87772568910780   -1.51238884779400
H          -0.87498382927900   -0.93669391862543   -1.62165702497511
H          -1.01372387056890   -2.36115131763530   -0.83859226686091
H          -0.30535214357850   -2.37355027724738   -2.39490186216780
H           0.57621549759860   -1.68095574526210   -1.09187717240545
