    23
        -45.36469330  Gyration_radius:  2.4067315809 Dipole_moment: 5.029
 S          -0.87153384311673   -0.64632300491658   -0.21273519732697
O          -0.32945320605024   -1.42603851409032    0.86523583139337
O          -2.38827621685166   -0.49225834728428   -0.01547080255712
O          -0.37767594774800    0.79657667975122   -0.10988947937273
O          -0.60057953308975   -1.15803475634494   -1.53448126308733
O           2.52848404183268    0.86379121167663    2.32095492074281
H           1.60381631732278    0.67237111608178    2.60523477212063
H           2.79786082230105    1.65969540644211    2.78156826893066
O          -0.08290290418126    0.47942159101738    2.73607305930934
H          -0.50173068512631    1.14239673946407    2.17967574811993
H          -0.20039976077639   -0.35906337403505    2.25229939263885
O           1.93024482539341   -1.76356233477319   -0.80836133596094
H           1.10393785789720   -1.70490881258474   -1.31716590987549
H           1.66669161956933   -2.12843231327395    0.04306478113337
O           2.07459389263199    0.81547064021539   -0.26980110909379
H           0.73449661575470    0.86576177425163   -0.21312998690951
H           2.36433403136973    0.86803887457086    0.68014667943695
H           2.22990597718477   -0.12420820813643   -0.54615547535715
N          -2.79908878743619    0.38959874082828   -2.38761208160957
H          -2.62579452689764    1.37655127089934   -2.52318136078508
H          -2.73064932714757   -0.10183511911457   -0.90106659461615
H          -3.56427468540391    0.10443548690338   -2.98424580746575
H          -1.96200657749026   -0.12944474756191   -2.64095703981505
