    23
        -45.36469328  Gyration_radius:  2.406665767 Dipole_moment: 5.027
 S          -0.94808073769844   -0.55533362678881    0.12361503037694
O          -1.29843327839713   -2.03918967979225    0.32023724122719
O           0.53697946491382   -0.51693925986468    0.48345227347652
O          -1.12494439894988   -0.20495626538514   -1.25831192944827
O          -1.69423611525301    0.25064336997721    1.05949741958056
O           1.20330547042870   -1.08169696766800   -2.25934936074082
H           1.47515953289786   -1.45694069085041   -1.41682353084645
H           0.27587055281929   -0.81340981976035   -2.12240454764725
O          -1.10655582566344    2.47816387995239   -0.35174499955080
H          -1.50185773885453    1.87485665989202    0.30003553939500
H          -1.27254218666833    2.05966241768633   -1.20310687013511
O           2.35900422875969    1.32727990620790   -2.28003613951355
H           1.94149854307022    0.44449825990851   -2.41737830147484
H           3.29641122837624    1.21594660453137   -2.44456897239060
O           1.38734131490504    1.76080662050629    0.12577559109960
H           0.52964568120845    2.23704064815250   -0.01943759536315
H           0.96734183247738    0.51011953351197    0.37233267795638
H           1.81885763285446    1.70482451396170   -0.76855403281049
N          -1.36642569707421   -1.88003453361847    2.87827307550866
H          -0.47061207225309   -1.93714539771831    3.34384373292878
H          -1.33765553177759   -2.16776749304505    1.33799988605401
H          -2.07019552825130   -2.30947084885234    3.46401137178488
H          -1.59987638187754   -0.90095783090971    2.73264242053980
