    23
        -45.37344439  Gyration_radius:  2.26854078669 Dipole_moment: 5.114
 S          -0.33898852860940    0.31227971583294    1.23892293761600
O          -0.82863547588955   -0.54822286149735   -0.01801772123359
O          -0.61433777009318   -0.45717969018781    2.42258475268414
O           1.07966721098564    0.55964554098315    1.01778770812586
O          -1.12386973092837    1.53586444036147    1.08653926274044
O           1.60363619191281   -1.87327174117385    2.19374924934381
H           2.19960425015284   -1.11984164329873    2.13414080293863
H           0.74419850723731   -1.46836288710404    2.44583790561774
O           1.61434167085145    0.27155820515933   -1.49881657230313
H           1.50114414899899   -0.67560814240421   -1.62673655732785
H           1.61978076813889    0.38555710238025   -0.51611863303172
O          -2.86458333762927    1.07762301957072   -1.01485045485502
H          -2.55571983333160    1.29113455087708   -0.11587780299627
H          -2.86205838359979    0.11750373223200   -1.04772462699385
O           0.99675705161324   -2.40522104547313   -0.29122609615508
H          -0.18943320137944   -1.29207904309731   -0.13855939702698
H           1.34507901096072   -2.27440986663892    0.63647454713666
H           0.67454562184376   -3.30798586119491   -0.32300460011130
N          -0.38501560461885    1.99617443562538   -1.35024246592333
H           0.38080618619166    1.29868059606170   -1.58685920802392
H          -0.16573193566325    2.92456521551888   -1.69694175014927
H          -1.32557399616972    1.66850702610323   -1.66301568031988
H          -0.50561284095831    1.98308918139675   -0.28804558974767
