    23
        -45.37605295  Gyration_radius:  2.42476010544 Dipole_moment: 4.380
 S          -0.38002615159876   -0.77363106009650    0.00755189965174
O          -1.53100638864204    0.26055882003139   -0.34230322007323
O          -0.98310022979901   -1.93835685975702    0.59468703109584
O           0.30140328047537   -1.00670196662532   -1.25082975117873
O           0.49433314900399   -0.05017165593004    0.95438546938881
O           2.88623937154692   -0.80571756565708   -1.69805841932660
H           3.33921974928086   -1.51859737233705   -1.24512069479125
H           1.92532037201114   -1.01752971420674   -1.64050551073278
O          -2.53371751035432   -1.65988077963014    2.71336860799397
H          -1.91500450172450   -1.89181823682475    1.98518043511266
H          -3.37380127485618   -2.05835989042698    2.48035222628815
O          -0.15452492604029    1.53288656585774   -2.30938213856484
H          -0.81110422917001    1.19717946426779   -1.67216720089042
H           0.05168947078764    0.76641684158922   -2.85460034933405
O          -1.78255181792484    0.83305456621837    2.13118995956371
H          -2.19586844701980    0.03023735565026    2.51898505603104
H          -0.83005242211500    0.65775144389044    2.15648329667325
H          -1.81153808157826    0.57439981794349    0.56985537569248
N           1.88871376198423    1.41134529376917   -0.61456693685779
H           2.54109177602329    0.71688097761879   -1.04416173804064
H           1.15738152537831    1.65137356403254   -1.33835064334645
H           1.35276486109093    0.85966232689079    0.14767960764786
H           2.36413866324262    2.22901807373472   -0.24967237199915
