    23
        -45.37605287  Gyration_radius:  2.42468076959 Dipole_moment: 4.379
 S          -0.36965854798553   -0.27640887794855   -0.72801813411159
O          -0.41275735467675   -0.80017505680989   -2.06548737085681
O           0.90177876621847   -0.58391465787847   -0.04003710607701
O          -0.40487193178312    1.30742973503515   -0.81169040106813
O          -1.50510580691687   -0.62702344696490    0.10261927915618
O          -1.45084246997451    1.68051775761665    1.66847010336178
H          -1.10869030650309    1.75598604181701    0.75899759801710
H          -2.23522797461648    1.12985715972473    1.57587180961671
O          -1.47295938840267   -2.16392640123843    2.23733214419717
H          -1.30297581106580   -3.06836338840830    1.96985043474220
H          -1.64008887319959   -1.66344735807282    1.40474659804953
O           1.40060891576684   -0.01557769179391   -3.81729646290786
H           0.91246498925668    0.33390449446663   -4.56461282249249
H           0.73190536892131   -0.43861211044552   -3.23366315128306
O           2.02217857325943    1.32945532727331   -1.59850046317633
H           1.97873975378718    0.96984669016369   -2.51200090234700
H           0.50778094090233    1.51574310826867   -1.17611959925827
H           2.09844732571337    0.54937470988234   -1.02895220699029
N           0.29409575404305   -0.18108443780502    2.41174327196044
H          -0.29498574074198   -1.01529330298032    2.63439928691990
H           1.02860269356452   -0.02140268460202    3.09202548211839
H           0.67484833268388   -0.36395868955833    1.41474615105556
H          -0.35328721824998    0.64707308025510    2.30557647137639
