    23
        -45.37605292  Gyration_radius:  2.42474825346 Dipole_moment: 4.379
 S          -0.03612298044411    0.81808446746001   -0.26833426659526
O          -1.29516975035007    0.10388867970098   -0.91756489716270
O           1.07197987962833    0.47399198189311   -1.13777644472471
O          -0.31552082715363    2.22431160054400   -0.17077021613382
O           0.11326901167011    0.17704416296889    1.05499469442299
O          -2.48428166898365    3.02351316338356    1.10553136592689
H          -2.97425079832354    3.56254645927642    0.48246385758749
H          -1.61364951937701    2.84870394580345    0.68330128943383
O           3.37031312524806   -0.57929869915704   -0.41013465099484
H           2.60537959487633   -0.09357908956201   -0.79812341056415
H           3.87136340491205    0.07198918435639    0.08313103099809
O           0.08422124081599   -2.01948910755823   -1.90333885841554
H           0.73953822209704   -1.53551553091048   -2.41670672789635
H          -0.57212706104311   -1.34066890372234   -1.66185151550051
O          -2.58274393438962    0.36256914501454    1.26964484656308
H          -1.97020652653979    0.15948949593881   -0.17555720484351
H          -1.70722542766106    0.25569166109205    1.67052946298458
H          -2.76717857963362    1.32638258241458    1.32306806340089
N           1.30040536078175   -2.00888196155241    0.45952117925730
H           0.83141413797747   -2.22587494567815   -0.46200787114105
H           2.27174346990827   -1.68452205216270    0.25031989562166
H           0.78531325790040   -1.13230020027773    0.83212963194692
H           1.27353636808263   -2.78807603925877    1.10753075582788
