    23
        -45.37276225  Gyration_radius:  2.37726819694 Dipole_moment: 7.386
 S          -0.86256938477710    0.01883854605523    0.33242293982585
O          -1.38589921682474    1.35660384501640    0.23200873792388
O          -1.49606995939928   -0.79125769272356    1.38077644924620
O          -0.86768498785333   -0.69027185255056   -0.94777176950960
O           0.63443236041172    0.08467690728103    0.79558666911500
O           0.05625215665287    3.56345852829508    0.58535655732992
H          -0.57530334375641    2.82387015154151    0.46282423784522
H           0.01035255707582    3.80062359096685    1.51229537570601
O          -0.23268968966126    1.44065440590386   -2.42255451229900
H          -0.87930771873747    2.07496299206452   -2.10072713460943
H          -0.50270962800095    0.58726197121968   -2.03304157272015
O           0.05881546851366   -3.10817714518780   -0.96477058073714
H          -0.63114103852626   -3.65415203045892   -1.34599365286594
H          -0.25086018382644   -2.16984311876312   -1.07922723128359
O           1.72031259960857    1.83918900431748   -0.65294718173863
H           1.18444570877655    1.72841646804355   -1.47254797761242
H           1.35434130820255    2.64034937490475   -0.22814456427294
H           1.13428176003190    0.77735029145806    0.21379275504489
N           0.32806450846421   -2.50351350479459    1.57584939319092
H           0.31720641525617   -3.18211238507089    2.32982615238522
H          -0.54756304888420   -1.80100494961617    1.58849443319016
H           1.14010501412284   -1.88881407633970    1.62433005805679
H           0.29318834312776   -2.94710931156127    0.61416242878524
