    23
        -45.36961876  Gyration_radius:  2.36761276959 Dipole_moment: 6.102
 S          -0.18396911407289   -0.59917494708363    0.96358355062661
O          -0.23512918051494   -1.99827881891393    1.40332486328766
O           0.16906811966332    0.33334467959735    2.00605778374675
O           0.96845732758526   -0.59484192474787   -0.12034089239795
O          -1.39687045046511   -0.23839875325909    0.23576846040496
O          -1.48111691916258    2.28251445239791    1.14879871658691
H          -1.83466738246988    1.53126949028107    0.64744750408457
H          -0.91309724414560    1.83884926934638    1.79859188602797
O           0.41308521605152    3.25383996036641   -0.44422163295243
H           0.49199637551416    4.19706669271238   -0.29378766176162
H          -0.36170957616275    2.95474899124406    0.09368092696520
O          -0.99145052283030   -1.16794889743731   -2.13690278273152
H          -0.30882077543979   -0.57423569961796   -2.46032412783390
H          -1.29386284517396   -0.76067375630098   -1.28139158461957
O           2.15545462532153    1.52787268229642    0.63199960092879
H           1.63951949900463    2.22391582926198    0.16352374464274
H           1.68454584652271    1.37026555874260    1.46484547736555
H           1.54291217844404    0.21330587983994    0.07213386448343
N          -0.00594560228014   -3.19631603484402   -0.80029568246023
H          -0.38968858556758   -2.44430638741586   -1.46161106971360
H           0.98081359821714   -3.35422023348014   -0.97896232380141
H          -0.11520059757073   -2.73851534228562    0.21847184707474
H          -0.53432395048064   -4.06008270070742   -0.87039044795505
