    23
        -45.36961880  Gyration_radius:  2.36797478843 Dipole_moment: 6.101
 S           1.02097960031448   -0.49804962294886    0.17769581058326
O           0.90724392796719    0.20235075370466   -1.09801583149831
O           1.65861815042060   -1.80773277530908   -0.00030504743944
O           1.59899515602835    0.30020214875926    1.23113712847954
O          -0.46335198579571   -0.86249210531322    0.58595736868074
O          -1.12451684240651    2.96569443549685    0.95472619020458
H          -1.18658015026679    3.84111645489286    1.33979592686335
H          -0.24343393324979    2.92587950754448    0.50623515171553
O           1.31042982458659    2.64447819959557   -0.06307610935144
H           1.17076380395123    2.03010291351246   -0.80043932745112
H           1.67738597439962    2.05832741058707    0.61781171675746
O          -1.18038855120709   -0.84583099551987   -2.19388658192987
H          -0.36545089582546   -0.35192811758012   -1.90889268029909
H          -1.88350888512058   -0.49272415058643   -1.64272059595438
O          -0.72943887129233    0.80685841973715    2.48944849067520
H          -1.00687421933589    1.61962124095189    2.00710937419309
H          -0.70374326995662   -0.26594992246618    1.36479088802309
H           0.24008342716410    0.81492276135207    2.47825990289349
N          -0.15529241127218   -3.05528168013015   -1.22385233083786
H          -0.75176284725893   -3.50865883740116   -0.53886149330396
H           0.70081751732286   -2.56886310942031   -0.68535996553728
H           0.17890704830495   -3.71851670512806   -1.91567926802900
H          -0.66988155744409   -2.23352624433314   -1.68187871743701
