    23
        -45.36961870  Gyration_radius:  2.36786310176 Dipole_moment: 6.103
 S          -0.20562018202148   -0.34176399420682    1.07746165461195
O          -1.39081353866318   -0.28508902501832    0.22718269683520
O           0.82349742987172    0.66680478964956    0.42440489850809
O          -0.47722325104986    0.24973043762149    2.39272767824140
O           0.40925391807424   -1.64551460083297    1.13387255769670
O          -1.38472509405961    2.13107009526715   -0.67800267060317
H          -0.63538204047395    2.10800404550271   -1.27885099257899
H          -1.52602070488570    1.18204718428133   -0.41598716931096
O          -0.91509251130910   -2.62492404553209   -0.99701156524152
H          -1.44989687436998   -1.83551642441646   -0.81984463460700
H          -0.38462709245651   -2.69210137755327   -0.18707159100881
O           0.97772829296689   -1.74112068699428   -2.64165192871649
H           1.24671949066605   -2.45756291875019   -3.21859571566077
H           0.21173060109390   -2.08452765464088   -2.11779993121899
O           2.45308442235418   -1.04746051124668   -0.51694519507654
H           1.55519899835251    0.10607238436597    0.01159213392779
H           2.03855221293953   -1.64067163331838    0.12838387976963
H           2.03742898452780   -1.26581007345292   -1.38280925636430
N          -0.67900992147876    2.68561494069245    1.78496253727869
H          -0.60686006498418    1.62199009475870    2.13566656472443
H          -0.97372641208061    2.59710010902952    0.75764310093551
H          -1.36422935600629    3.20238490613353    2.32680421213836
H           0.24003268299318    3.11124397865354    1.85386872572333
