    23
        -45.36961878  Gyration_radius:  2.3678028939 Dipole_moment: 6.102
 S           0.66962689677940   -0.46254822641827    0.81122561557206
O           0.82044691937350   -0.26394277947932   -0.75103433770136
O           1.23270189968709    0.68933848809939    1.47233116062116
O          -0.76206492572100   -0.63246613599720    1.04016409304847
O           1.39206964938667   -1.71367559342986    1.06867677429986
O          -1.14338718081371    1.84048176965789    2.00718559451304
H          -0.18750629512260    1.71335216626260    2.11606710974976
H          -1.43873222599894    0.94509042519240    1.77959683113211
O          -1.11692154573003    3.09896969938330   -0.33472410686927
H          -1.23189956986006    2.65739773534567    0.54331283266152
H          -1.29715076775104    4.02899153047552   -0.18935290869984
O          -1.60399676971972   -1.75386661723044   -1.12578295117993
H          -1.52669479839484   -1.03326531900437   -1.75651998393050
H          -1.43620170854017   -1.33224545095907   -0.24074358696072
O           1.37998188964771    2.21952052527094   -0.74060376337581
H           1.61234462701845    2.05581470753541    0.18643103649893
H           1.06253428041296    0.70577256400431   -0.89677427908854
H           0.48401641071391    2.62823640539517   -0.72098621936712
N           0.62290061956973   -3.11460435058325   -0.87797185798387
H           1.26782625213467   -2.97444494383665   -1.64932732451701
H           0.50768495767206   -4.10151910038849   -0.67075406102104
H           1.00973461635285   -2.55754541410907    0.01618944970963
H          -0.31731323111814   -2.64284209518498   -1.08660514712018
