    23
        -45.37159132  Gyration_radius:  2.31515942499 Dipole_moment: 7.188
 S           0.00453003442779   -1.02170424480770   -0.12585667653302
O          -1.17101109457676   -1.62081288997658   -0.89764809044608
O           0.54756062110272   -2.06202174732204    0.73898402004487
O           1.02761575169233   -0.55031291068414   -1.07151198218587
O          -0.48908085353877    0.11594033031689    0.66457083781508
O           1.56525776370143    0.96117471288629    2.06466536072964
H           1.29456950335128    0.95468695676783    2.98442565866829
H           0.75615595794268    0.72750937772747    1.54578193983144
O          -3.05821572631680    0.80961483629806    0.43112079045927
H          -3.56771481437106    0.11666030540494    0.85413756146903
H          -2.11793008096697    0.60470581531530    0.61347719844180
O          -0.14066605715990    1.74693944688946   -1.73841695069983
H          -0.32117805501726    2.07705805355583   -0.85403589642502
H           0.40132691410293    0.94398826257441   -1.60868201964568
O          -2.33028718324493    0.26395631433536   -2.10500406663273
H          -1.59034421375872    0.90530333967796   -2.20604539136086
H          -1.65321754280806   -0.89708341526472   -1.46800961079006
H          -2.83984949868498    0.58569387617897   -1.33293056983972
N           2.80823069070584   -0.93870983100226    0.71758379339084
H           3.75959864009952   -1.28874531338824    0.73908054358909
H           2.61943902131739   -0.13569526519391    1.36653665970809
H           2.46241640120869   -0.64262146498610   -0.23221972199402
H           2.03279383077841   -1.65552453529953    0.91999662240324
