    23
        -45.37886622  Gyration_radius:  2.311810074 Dipole_moment: 5.415
 S          -1.14502477236718   -0.31446986452068    0.29649957329791
O          -0.49263004177989   -0.71245850930676    1.53627722696052
O          -1.48498782066302   -1.44763912960948   -0.55075122969542
O          -2.45617361543165    0.43072274796851    0.64668057111547
O          -0.29018762174168    0.62528798326545   -0.45008400537775
O           1.95286275217497   -1.02888422137791    0.69280895258317
H           2.22580338875866   -0.11921292952647    0.54768514599276
H           1.08156434364808   -0.96193764452937    1.15537566547645
O           0.51190391305823    2.56971220632542    1.12773923322507
H           0.26819194178976    1.85027117905261    0.50238006676421
H           0.35224207717309    3.39275281714019    0.66298795763934
O           0.57657130226963    0.12340054017030   -2.88429111139987
H          -0.17634636554708    0.21340552112127   -3.47099609669789
H           0.26667414826274    0.44319379804725   -2.00367060446065
O          -1.40249351629835    1.52348269164738    2.72738081166213
H          -0.70404467843344    2.08329497838294    2.32975227787918
H          -2.22647600134729    0.95076905851961    1.47219415948201
H          -0.98377692660692    0.65691104786962    2.83635835036226
N           0.84638631871323   -2.09331568981138   -1.45444020495482
H           0.92209993370055   -1.38125016281302   -2.22018501923690
H           1.07565153988049   -3.03397200553622   -1.75552286379676
H           1.44463700377252   -1.76748542723057   -0.63965029912563
H          -0.16244730302464   -2.00257898527918   -1.10452856769089
