    23
        -45.37886624  Gyration_radius:  2.31168060235 Dipole_moment: 5.412
 S           0.53860527357546    1.08069232842238   -0.20308361636666
O           0.63035652331340   -0.22050289491527    0.48224972983066
O           1.98416582259283    1.58632288954626   -0.43117385686967
O          -0.10694303089571    0.92316802752659   -1.49902703312349
O          -0.14292017825459    2.03941207073877    0.65358209020256
O          -0.47925069461493   -0.66759233947155    2.82689096298080
H           0.04497291778810   -0.19603522990874    3.47650300379550
H           0.02335213047084   -0.60004413250782    1.98035238512338
O           1.66098493542969   -2.02385504290955   -1.12982762882170
H           2.35242871930410   -2.47414981497483   -0.64193780440250
H           1.24181482914449   -1.39835672223283   -0.49646126084826
O          -2.01042643782313   -0.74183054216390   -0.86977852297641
H          -1.35585293790962   -0.10955550241289   -1.25621333044448
H          -1.51772905741509   -1.55563511130090   -0.73569163250752
O           2.24719973709757    0.18550258775681   -2.57678191443573
H           2.27740117221939    1.11382007889628   -1.26496912942095
H           2.17891372573260   -0.72856723122173   -2.23157767098411
H           1.32972956830141    0.45300691205110   -2.73413964682953
N          -2.22279325946160    0.67497137909620    1.34739807086190
H          -1.46673143739437    1.38785040341989    1.08529744159107
H          -2.31825245438337    0.05548824598303    0.48998390634138
H          -1.79012831652731    0.10584601955127    2.11422394001902
H          -3.09889755031506    1.11004362102892    1.61418147729581
