    23
        -45.36919980  Gyration_radius:  2.39103663924 Dipole_moment: 6.953
 S          -1.11461775862930    0.04844959577585   -0.23039730818139
O          -0.28094427976989    0.88187344491039   -1.11919027578949
O          -1.98809155875787   -0.81796556659358   -1.01972606221816
O          -0.10047202249302   -0.94990422005360    0.44887457795847
O          -1.77137789816719    0.80500457386237    0.79598440338781
O          -1.06224721397816    1.22034383771814    3.32843264873361
H          -1.47174586035650    1.02986707630326    2.45945777411699
H          -1.09197322630551    2.17489067776933    3.41993117016899
O           1.10752538472799    2.48914654002969    0.45908753988034
H           1.82481282549144    2.80617713875129   -0.09224680897562
H           0.50435019942654    1.99059202634240   -0.13415085691976
O           1.25406574515130   -2.63376682594704   -1.17146756332757
H           0.87095974478871   -2.06502393561440   -0.47193631518474
H           1.10631862366369   -3.53794953298582   -0.88895860119004
O           1.17833902828721    0.39989812182623    2.14001986443996
H           0.46067318769491    0.62117376396955    2.77731769945201
H           0.44584103474312   -0.43702341455852    1.17093196908952
H           1.31387835781174    1.22437629723353    1.62615730170331
N          -0.21671146368889   -1.07370946268068   -2.76401188073570
H          -0.34470595657844   -1.08793470069053   -3.76923124130682
H           0.45539314248461   -1.78974052041348   -2.41538669310753
H           0.05323752424898   -0.13251720398245   -2.37581985523106
H          -1.13250756979294   -1.16625770097064   -2.17367149676438
