    23
        -45.37036739  Gyration_radius:  2.37950809449 Dipole_moment: 6.245
 S           0.43384732652012   -0.52137552676483   -0.79453647655075
O           1.16149890065915   -0.24640300920097   -2.02980700464121
O          -0.81731104322670    0.24030177000039   -0.73908885565599
O           0.10724571325605   -2.01462681547499   -0.76624514076652
O           1.27290191959424   -0.19128166834646    0.37158917396580
O           0.44924287207793   -1.03812089497982    2.73844797097679
H           0.76119798279343   -0.64056589718356    1.89568870876529
H           1.19181717875423   -1.53252848335409    3.08950567671877
O          -3.03700169690961   -0.69781666884595    0.38272059719034
H          -2.25836056569340   -0.24877171863930   -0.00975745331412
H          -3.57012503140211   -0.99804732447128   -0.35534228007093
O          -0.28917690712023    2.79795224421292   -0.94396152916843
H          -0.80146948516487    3.10897892518713   -1.69247167023455
H          -0.58009841151507    1.86343047969972   -0.79100064775130
O          -1.26678834965969   -2.48834007459692    1.28913365907754
H          -0.45322092652709   -2.26381608844391    0.07592146122515
H          -0.74965952420684   -2.01984259247175    1.98142432718535
H          -2.04981824791085   -1.92116906018848    1.11506334954502
N           2.14949712522292    1.81407785809340   -0.96885957906638
H           3.04989013595250    2.26663082375111   -1.08065806914542
H           2.05684074135699    1.22358795375770   -0.10613866679344
H           1.32486978013214    2.46870708353839   -0.97850906002626
H           1.91418053301416    1.03903870471542   -1.68311851146895
