    23
        -45.36866943  Gyration_radius:  2.27796337334 Dipole_moment: 3.026
 S           0.78942756506556   -0.28490061490133   -0.17703336420375
O           1.15587333159217   -1.45977335191812    0.59237382214920
O           1.52696706462741   -0.30021058302480   -1.54326469971638
O          -0.65826843501145   -0.32043120732373   -0.50506160927979
O           1.12366358418951    0.95518208858909    0.49234888914511
O          -0.91149414048297    2.07919095314150   -1.67865525532619
H          -0.07560216024874    2.22478403574071   -2.12556685126354
H          -0.89824408026957    1.14630930278503   -1.38985151255389
O          -0.76942967245615    2.72019534954600    0.91627540082841
H          -1.03214270589839    2.79679204629286   -0.02663435432217
H           0.10905748822898    2.27953856595389    0.85733133052977
O           0.20634640508952   -0.43628365427149    2.82837725753939
H           0.59009519165582   -0.96844855887025    2.09248072868820
H           0.83996107778314    0.27206207224453    2.97466811154482
O          -1.77839841547951    0.54005960396707    1.55252749276902
H          -1.47476682770791    0.09751766615632    0.66188273813556
H          -1.10125995397194    0.15413077727924    2.21972896645624
H          -1.47368724453329    1.56457936796632    1.37731498435409
N           0.74038507235542   -2.74209701256530   -1.90053925169799
H           1.32934186239565   -1.22127951077078   -1.89727274277662
H           1.17262930029954   -3.55907096907925   -2.31222360539229
H           0.83676428376326   -2.78722069568325   -0.88902878966387
H          -0.24721861099310   -2.75062568133492   -2.12017771599028
