    23
        -45.37164510  Gyration_radius:  2.38494501002 Dipole_moment: 6.533
 S          -0.57229844688288    0.78659673614405   -0.16124388358870
O          -1.59587267480950   -0.24411610570054   -0.16081469397015
O          -1.02732516034255    2.11180031714385    0.16438504069637
O           0.41582729306032    0.32639353433686    1.01755224320285
O           0.24425217104019    0.71986949657275   -1.37382918142426
O          -2.04968164114753   -2.28987869076664    1.38575444443868
H          -2.87458670543374   -2.69385383772444    1.11232350721345
H          -2.00819180115398   -1.41688680745634    0.92376683987651
O           1.00866545399418    3.28460700647409   -1.02118246292958
H           1.08545456204295    2.51131383435731   -1.59643891398034
H           0.12559286646099    3.15656567079420   -0.61985677448433
O          -0.14118800553047   -1.71120689147559   -2.08454678478946
H          -1.10072642788537   -1.71441249834300   -2.14093356449788
H           0.08034954078763   -0.74745276638482   -1.94067500894902
O           1.99920515520507    2.34084210465053    1.20989281343081
H           1.07244122130570    1.07950319544522    1.12819306145850
H           1.78876162913192    2.77745385988476    0.33795453360070
H           1.64055436339697    2.92464256111297    1.88228424691812
N           0.40829962363390   -2.27253535308606    0.39793133263940
H           0.58774154518638   -1.29888935540271    0.73058724985287
H          -0.49531247968508   -2.55423960289876    0.85106800071929
H           0.23314368234680   -2.17781619733797   -0.66357976359774
H           1.17489424527778   -2.89830021033539    0.62140771815270
