    23
        -45.37036685  Gyration_radius:  2.37845553445 Dipole_moment: 6.252
 S           0.16100100897715    0.30626192446092    0.98686758978291
O          -1.03119300442347    0.01166067853160    1.89764686057208
O           1.13245443402697    1.07671720434980    1.75762893811979
O           0.75811585115627   -0.96824054532380    0.54944644855501
O          -0.30647154237274    1.06295596608364   -0.17817343049772
O          -2.80076570429045    0.92899634550952   -1.08803958764855
H          -3.22916236289797    1.70710150059742   -0.72722909053152
H          -1.85119030335728    1.01038461847037   -0.85683681504093
O          -0.88205603767324   -2.77884180565077   -0.46394782740241
H          -0.71064335987779   -3.57249921990450    0.04588906008913
H          -0.22345856052657   -2.11458159693820   -0.16304304961311
O           1.74237391198751    1.70492728689207   -1.67945608800749
H           1.70594863290342    2.65841358734646   -1.77387822724393
H           0.90443999022468    1.45023431251018   -1.21663426535518
O          -2.78148437839663   -1.19057031296414    0.54555346200682
H          -2.97960008399045   -0.50820097683000   -0.13286053968844
H          -2.24118979259492   -1.87109004913713    0.08610014717117
H          -1.78073823829345   -0.49929198758137    1.38521912514731
N           2.95415167083617    0.31295210668982    0.19433665437742
H           2.43308122685581    0.80044069781344    1.00559860527252
H           3.93664235237480    0.11561090894315    0.34840997485567
H           2.33804495122507   -0.53454383389208    0.13914904796987
H           2.75169932812235    0.89120321001924   -0.66174700288983
