    23
        -45.37722779  Gyration_radius:  2.39401148075 Dipole_moment: 5.953
 S           0.96503162516679   -0.11640758582710    0.52112472481365
O           2.13532468927600    0.43606948683533    1.36814474465068
O           1.34395277832079   -1.45369935597966    0.07773201629862
O          -0.23347236051223   -0.14217144265165    1.35506289071848
O           0.78080661705220    0.77332011878250   -0.62979256211558
O          -2.24417565156809   -1.67471310777897    0.70385954565552
H          -2.42418453157654   -2.18961952091968    1.49230347412619
H          -1.55780235568739   -1.01215423214839    0.97051254757879
O           0.38924225370390    3.26246430863077    0.18715624425765
H           1.12686876328330    3.76236374302788   -0.16646201140344
H           0.46561557926475    2.35947193732525   -0.19181088873291
O          -0.45428489825238   -0.13725873021765   -2.75181592853054
H           0.15864768138083    0.01083180560188   -3.47404648667089
H          -0.04473320046028    0.29637120981723   -1.96232246443962
O           0.60885164423358    2.09111969018367    2.59092447209507
H           0.46141196471083    2.73178810139689    1.86315949066876
H          -0.05319696968439    1.39638396818398    2.45137185972837
H           1.70011500017939    1.13333867824427    1.94450833013120
N          -0.63843408629710   -2.34189231457488   -1.29211162805590
H          -0.70405986626150   -1.59355434609092   -2.02705669985596
H           0.25212262865250   -2.09674716533743   -0.73638958654920
H          -1.42629369663194   -2.22083813414476   -0.60565113710678
H          -0.60735359828768   -3.27446710235821   -1.68840092726471
