    23
        -45.37722784  Gyration_radius:  2.39410289754 Dipole_moment: 5.952
 S           0.92678128968521    0.08552065099083    0.59117176204093
O           1.91237693811781   -0.32133735514504   -0.40467587432259
O           1.68268861363005    0.30825502463755    1.92201450430719
O           0.26892104642612    1.33585883268026    0.22178557552230
O          -0.05846955040300   -0.97939150826694    0.80379429587817
O          -1.66188610925291   -0.35668662162528    2.81857340975586
H          -1.15096836350128   -0.63020965451933    2.02551797760772
H          -1.51255203745996   -1.03607473069641    3.47829204048592
O          -0.45649088050997    1.75028606784056   -2.25170015296746
H          -0.06511353002229    2.59444505731148   -2.48291308133196
H          -0.28291346481678    1.63350809919713   -1.28352095865512
O          -0.97939029974711   -2.28529482236101   -1.27106113069220
H          -0.73183069956937   -1.78948333512345   -0.45138724525524
H          -0.80572471168108   -3.20791770997239   -1.07654527299484
O          -0.14702473058903    1.85794216008777    2.82510448282672
H           1.08282173793561    0.93095628954467    2.43211417014314
H          -0.25114619744513    2.08155335087592    1.88723070265595
H          -0.84118166925667    1.18898909639834    3.00476763791055
N           0.62049337538578   -0.64255396513460   -2.60077089646091
H           0.14103946237786    0.28963191402547   -2.68912303935374
H           1.27940157778445   -0.53494977532960   -1.75444226530150
H          -0.08120915466641   -1.36363145909483   -2.29756697948951
H           1.11137734758081   -0.90941561632303   -3.44665965231209
