    23
        -45.36881366  Gyration_radius:  2.43254442208 Dipole_moment: 6.092
 S          -0.66669063799657   -0.72147719365507    0.34969305441689
O          -1.05559215654590    0.78611320050164    0.08514973154082
O          -1.84199233757389   -1.46617672637025   -0.12273553955925
O           0.48458884655758   -0.99149360322666   -0.50939804105317
O          -0.38816878843923   -0.88669175392958    1.75411885806762
O           0.13506444148661   -0.70634257988992   -3.06081075106306
H           0.38127882174581   -1.55071455960347   -3.44307645412065
H           0.38703556175044   -0.76663383303472   -2.10020006718509
O           2.50923176591983    1.67900010871887    1.82894104900347
H           2.54564696712223    0.70974373895069    1.64214217529686
H           3.13130943810557    1.83772298638698    2.54043670459887
O           2.30675948996579   -0.95331122761557    1.45354416390082
H           1.95567919124026   -1.01980144951997    0.54986419771721
H           1.51831282853573   -1.12791193348445    1.98755846513224
O          -0.13461221584658    1.74695987962472    2.25339274163466
H           0.82931394186585    1.88132089878055    2.10209147836331
H          -0.71851266198230    1.30856515516458    0.88248705680052
H          -0.22494298497317    0.83119905315280    2.55949357399294
N          -2.26609670653221   -0.10394825058647   -2.18878558518251
H          -1.38748661675717   -0.31652756258371   -2.74291582932407
H          -3.11871900503165   -0.22600292307331   -2.72467976059922
H          -2.19306315919121   -0.77884706976129   -1.29622680838985
H          -2.18834401342540    0.83525564505926   -1.80008439398504
