    23
        -45.36881380  Gyration_radius:  2.43282831866 Dipole_moment: 6.092
 S          -0.33674468566514   -0.03580414263710   -0.98548466356507
O          -0.35842843978449   -1.26799978012981    0.00219001986166
O          -1.60220156002648   -0.16427338677361   -1.72128011683523
O          -0.36107063809423    1.15396012770944   -0.13710708865459
O           0.83944982637079   -0.12880053491334   -1.81334997649678
O           2.22104850201200    1.78366618219882   -0.47765537714273
H           2.09414272386853    1.23227646933875   -1.26342546086170
H           1.31512589859955    1.85404636921323   -0.13358527180119
O          -2.40661135177115    1.43500461602817    1.42833147823267
H          -1.55111988918113    1.37593423372346    0.92386293398893
H          -2.77454767411391    2.29273032392515    1.20763539035951
O           3.34487929941932   -0.01951266036855    1.13384006708299
H           2.96174127199601    0.73144451953066    0.61917588553315
H           4.29666428866254    0.08183800777803    1.08647947892756
O           2.08374566100185   -1.93443049542833   -0.25076991372943
H           2.00957052184376   -1.44299163012686   -1.08350330845099
H           2.58920175629376   -1.34789870392229    0.35804747597063
H           0.58495809994814   -1.63162045218683    0.02057558662370
N          -3.03621025276496   -0.81595198839318    0.23382602874492
H          -3.98507003884619   -1.14615691731655    0.09356296269507
H          -2.50652604335015   -0.54681001354391   -0.71749821099686
H          -2.98050848801339    0.06767324175129    0.81690768732438
H          -2.44148882840483   -1.52632338545091    0.65922440319076
