    23
        -45.37069585  Gyration_radius:  2.4022056322 Dipole_moment: 5.452
 S           1.05582831570459   -0.35763726159829    0.05532003575430
O           0.43002338059331    0.55751041869122   -0.92101890783110
O           1.92309768679369   -1.31045863072558   -0.59213800012740
O           1.88152970714080    0.47244909090741    1.04023874146867
O          -0.02102887010364   -1.04337775562563    0.80683947987082
O          -1.50706989008707    0.34834877907986    2.47550348896016
H          -0.98159973115844   -0.21705579647368    1.86515118355277
H          -1.42275460436991   -0.05020461106684    3.34337222718690
O          -0.12949636369198    3.10811908831384   -0.46832900644695
H           0.57862270478929    3.62564358404524   -0.85523303808077
H           0.04705923619339    2.17637728072837   -0.72063416657636
O           0.67355656662201   -2.82456781388696   -2.31110701006523
H           1.26251397760464   -2.25549874244996   -1.75048794758094
H           0.88139319152098   -3.72771817851476   -2.06470222362582
O           0.35362887985131    2.23423358740365    2.02162717584666
H           0.09275509389777    2.73004083381577    1.21582363248919
H          -0.43186115339773    1.70432473104510    2.27571180944758
H           1.29617619203379    1.20399259137307    1.47666013889308
N          -1.25674886526313   -1.29254367141660   -1.40790635363382
H          -2.24231771147468   -1.26648879686665   -1.64598283670241
H          -0.74470353395986   -0.37381107317420   -1.53939190615216
H          -1.04235417132969   -1.41827740191988   -0.37547384186910
H          -0.69625002791162   -2.02340025168505   -1.92384265477828
