    23
        -45.37096474  Gyration_radius:  2.41336624701 Dipole_moment: 6.270
 S          -0.60721240594880    0.59225682613969    0.12898941259575
O           0.65132726250061    0.02532961879022    0.87632178923765
O          -1.05744377315408   -0.53428237799463   -0.72677872291852
O          -1.57456639915281    0.87971631894809    1.15901217220140
O          -0.20125781655711    1.73109190032155   -0.66706669326400
O          -2.61072975957248   -0.98760014892026    2.62377392329361
H          -3.55606672732568   -0.94171817690648    2.46897793105982
H          -2.23255647220170   -0.17495377863309    2.19397823439257
O           2.31222428961604    2.70510442751779   -0.70863028019960
H           1.36576725287614    2.49898841399065   -0.58387680097256
H           2.36246098739385    3.23371087665188   -1.50728951580219
O           0.61659110082873    0.30786808912625   -2.77139496023894
H           0.26311813562392    0.99015711817997   -2.16875911812729
H          -0.02207890817463   -0.40753529517340   -2.70122214042166
O           2.48719974821074    0.02023938645664   -0.87015254123408
H           2.74405997067725    0.96068820793441   -0.77952936043591
H           1.43419423233101    0.00002827415047    0.21296642793496
H           1.95566441518468   -0.00780640194917   -1.69773218143772
N          -0.86347704928381   -2.23094330910650    1.11378878052209
H           0.03175903962353   -1.90477646969347    1.48397886220580
H          -1.01463318918416   -1.59006960128678    0.21002932245333
H          -0.85783062906018   -3.22700716031973    0.92071677665847
H          -1.62651331523992   -1.93848672823185    1.78989867248943
