    23
        -45.37136262  Gyration_radius:  2.46217944593 Dipole_moment: 7.529
 S           0.99145101590861    0.18733185600290    0.07223880437124
O           0.98438623762885   -0.06656233775494   -1.34969573524583
O           2.42916039367694   -0.03055289835298    0.61721170868522
O           0.61598649491517    1.56105232232638    0.42203838438467
O           0.11608395385181   -0.75696407202266    0.79862879831770
O           1.07584619554749   -3.20872015372784    0.36250992057754
H           0.62526386491325   -2.34866041353233    0.49442466256291
H           1.31850095066772   -3.51957239299382    1.23646233464551
O          -0.91481648333546    1.81299750958921   -1.76807731490620
H          -0.46695293410574    1.03464762810792   -2.12851578190721
H          -0.32975196804391    2.05409462041449   -1.02906586701301
O          -3.16939604316314    1.42574509999646   -0.46833632620583
H          -3.71418575060595    2.19810244869130   -0.62847506104128
H          -2.38716300106157    1.51398703066594   -1.07576371621343
O           2.94920724750007   -1.89718717854372   -1.06771264418167
H           2.39293942246696   -2.59522038322237   -0.66482303928345
H           2.34508214320557   -1.39739262166735   -1.63829575349103
H           2.82107390695240   -0.75374722079174    0.03994737492448
N          -1.58001979428718    0.97019675042852    1.59636406311203
H          -2.35412949226387    1.13615734227263    0.89668205343208
H          -1.87107995908068    1.09502857504847    2.55926468988278
H          -1.12844598451853    0.02658641800917    1.40774389369254
H          -0.74904043682480    1.55865208104337    1.31524453089839
