    23
        -45.37136257  Gyration_radius:  2.46237076862 Dipole_moment: 7.530
 S           0.00564290103835    0.99997518569416   -0.14920993679393
O           0.49058014726159   -0.11963869353693   -0.98385651656104
O          -1.45598628396905    0.93233941349919   -0.05167377399793
O           0.66684693896794    1.03235543688733    1.13457310633264
O           0.33714984540901    2.30585101271235   -0.92136850230728
O          -1.83444656626451   -2.70975478621046    1.26389797432516
H          -2.61853162464720   -3.04509473667323    1.70177555129070
H          -1.57493230220636   -1.88918850166352    1.76187525313966
O          -1.34569338035426   -0.34407243981436    2.30639585589020
H          -0.42120611582099   -0.06711755193890    2.37593210259930
H          -1.67152990734992    0.22932102423080    1.59105929220213
O           3.10134514298752    0.27099899830563   -1.37697436808104
H           2.16888662683174    0.02484373522047   -1.20367371708262
H           3.17749682320496    0.37466241817146   -2.32714804518928
O           2.68739167139897    2.49216053981798    0.09647666083849
H           2.26970861747076    2.06194472540432    0.85854687435848
H           3.10475670495650    1.76219934523723   -0.40544141646851
H           1.26348573530690    2.55764944032489   -0.62441460142338
N          -1.70337731310080   -1.41585096581469   -1.03929433194640
H          -1.99877637450933   -0.45311741070412   -0.72039629089117
H          -0.67539444038966   -1.18560957801085   -1.18077978741920
H          -1.80641114913965   -2.07998314949755   -0.22393750366710
H          -2.16700570708205   -1.73487348163736   -1.88236385913970
