    23
        -45.37136257  Gyration_radius:  2.46231414619 Dipole_moment: 7.526
 S          -0.72479478886658    0.59398945982545    0.38094250503578
O           0.56075462704678    0.91247597066565   -0.27604615523596
O          -1.40516201188223    1.95115858896902    0.70736989337375
O          -1.59114748784089   -0.16955861353275   -0.48659531128421
O          -0.46127585513470   -0.06083826432207    1.66639152879305
O           1.80900312847523   -2.97294152441923    0.43868558602062
H           1.97572665469228   -3.77405957840622    0.93807394385381
H           0.81990382596308   -2.88639073626053    0.38565444547848
O          -0.00512447104655    2.38215088047067   -2.43067117644378
H           0.26455286180475    1.78055147904626   -1.70576182107949
H           0.43266804089802    3.21807617795971   -2.26063556734706
O          -0.77488331693989   -2.50611612942020    0.60605435895501
H          -0.77728447843596   -1.78471648798559    1.25895584310091
H          -1.20459489711578   -2.08708113077331   -0.15285062073663
O          -2.55109377501628    2.10241220881277   -1.58550434609199
H          -1.94219475248972    2.17848260388545   -0.11104239098155
H          -1.75497053050570    2.31355632905447   -2.11523374171236
H          -2.55679484429000    1.13483153359037   -1.52176583758570
N           2.03407899292817   -0.47347746553412    1.27463002318744
H           1.13093371549070   -0.38396897815349    1.81509178551903
H           2.13111916940690   -1.47665181897312    0.95745439766188
H           1.74174632689670    0.13171317111229    0.45103716348170
H           2.84883386593981   -0.12359767562134    1.76576550404129
