    23
        -45.37136259  Gyration_radius:  2.46223787033 Dipole_moment: 7.530
 S          -0.44736849877741   -0.44014560574943   -0.79365280616405
O          -0.85913085982875   -1.42300688124297    0.18143549528664
O          -0.53706280957097    0.93332535346550   -0.25415082863396
O           0.90389116619209   -0.66672978424020   -1.31639734700407
O          -1.40886974167784   -0.50295876085402   -2.01146900591844
O          -3.09591474688009    1.36554666834737    0.36894532409838
H          -3.35124380145896    2.09429347738087   -0.19944119960691
H          -2.13211082476186    1.24428672004205    0.24045898985535
O           1.69622724412526   -1.86186582759471    0.95215377996802
H           0.76284300505310   -1.95708796847188    1.18877920697822
H           1.63967574516901   -1.64114060446085    0.00625633851304
O           2.96863861480277    0.25918520715290    1.84877399313287
H           2.46737299537789   -0.57665354028387    1.65183754887720
H           3.87696471433396   -0.00871645820332    1.99772396189273
O          -3.43692628615983   -1.13965436428894   -0.57070884845845
H          -2.29903692509600   -0.76887116204836   -1.62854889445902
H          -2.76761587571066   -1.57314440079288   -0.01895649373056
H          -3.57910639785875   -0.26601788011224   -0.15175157275560
N           1.96257206754727    1.42975444390939   -0.29921545711517
H           1.87099461730897    0.59012145610247   -0.93356427634991
H           2.38486241144405    2.23927604473363   -0.73947603106596
H           0.92440253547543    1.54594815375217   -0.10282507099371
H           2.45594164091016    1.12425570337959    0.58379320362354
