    23
        -45.37068246  Gyration_radius:  2.30534100101 Dipole_moment: 2.022
 S           0.63046886131604    0.90208764029488    0.25516202634407
O           0.76215291970322    0.55177944926602   -1.15202411819700
O           1.11272988882208   -0.19908541072139    1.10564417299075
O           1.50548560769395    2.14102918545361    0.55282879007374
O          -0.74595682979992    1.24681972816212    0.59344070365807
O          -2.39260711989631   -0.49257662627706    1.76005056216295
H          -3.08899636941581   -0.43827713053059    1.09616623110402
H          -1.81622545015998    0.28108349285688    1.58401824387390
O          -0.85926290832593   -1.47978014706003   -1.47796856132409
H          -1.69350619576917   -0.96678039431879   -1.47517961918664
H          -0.15876082711426   -0.78441640541992   -1.52306698113600
O          -2.69628772966033    0.43175051076435   -1.00668230604165
H          -1.98607771130895    0.85706290644527   -0.47468437860858
H          -2.91318068555038    1.05184541360334   -1.70400432678387
O          -0.53781262337077   -2.03482632648878    0.93943370903296
H           0.24462404598113   -1.33461684455811    1.09284271963629
H          -1.34623465004626   -1.57021359031605    1.36996089100942
H          -0.69465461956073   -1.95882427801115   -0.10791822904523
N           3.49229093464622    0.72674565954294   -0.32468182138191
H           4.43072934405867    0.81149908744641   -0.69431410111163
H           2.86101440185144    0.44828080798566   -1.06954547637334
H           3.47673793991496   -0.00724382450483    0.37273887132917
H           2.41332979597992    1.81665709639803    0.28778300802356
