    23
        -45.37068253  Gyration_radius:  2.3052487841 Dipole_moment: 2.023
 S           0.68160614869723   -0.10514734592915    0.89506135511016
O          -0.13350402450744    1.08136735724116    1.13048300690337
O          -0.14285203834003   -1.29273663681529    0.72097588778734
O           1.55447974717141    0.08949153920209   -0.27478633520137
O           1.59063773355388   -0.29617212151088    2.13062674892379
O          -0.70288974265370    2.81222053016471   -0.81354958303746
H          -1.66042564384385    2.76882907165224   -0.71396233103362
H          -0.34647272192934    2.40147659484688    0.00247473372704
O          -1.67028820216265   -0.73792166960978   -1.33318040694236
H          -1.13782226094274   -1.13985081299956   -0.60422264824650
H          -2.28288566095016   -0.13403755707538   -0.86497814493954
O          -2.68669979428822    1.03704850230426    0.41787501373247
H          -3.27795014883761    0.72723993838087    1.10505190805439
H          -1.78458095458527    1.03089255632312    0.81087524539535
O           0.11599401882831    0.80699443115878   -2.15573541925044
H           0.83921736108162    0.50225367959392   -1.44179442750734
H          -0.67832445803614    0.12865373634028   -1.96306409916471
H          -0.20216406304185    1.71049498928416   -1.78550716944900
N           2.47824225580168   -2.41339179528903    0.92748287397216
H           2.88916689534583   -1.96800411768778    0.11621433572982
H           1.50436386961009   -2.59894289934736    0.70855709058375
H           2.95589648086500   -3.28865830357069    1.10122607089414
H           2.09725520318447   -1.12209965639762    1.88387628391475
