    23
        -45.37068254  Gyration_radius:  2.30513571109 Dipole_moment: 2.020
 S          -0.75698910833181    0.47528721749049   -0.69200779005799
O          -1.80083487332197    1.07743976999044   -1.66019923188346
O          -1.19840563855715    0.77385637293477    0.68085846759116
O          -0.68726216665852   -0.96413825456594   -0.90081097912508
O           0.52212190239805    1.11820212221291   -0.97133408940698
O           1.18776933923256   -1.77694661822213    0.73689191577917
H           1.95030745718013   -1.45985755417324    0.21048194896352
H           0.41980211689789   -1.66344570539638    0.12536057468539
O           2.22106922177409    1.78556340863041    0.97014353741023
H           1.58079851297221    1.82627724349459    0.22851329987597
H           2.97611297045786    1.30102035205633    0.61826327613814
O           2.72229851855605   -0.36136346952690   -0.96378197762010
H           2.94239856889871   -0.73723288582069   -1.81704866743159
H           1.91182351584083    0.17862161568471   -1.10430572853761
O           0.66486120623372    0.18392048986151    2.19798517018238
H           0.92819970555715   -0.72463024465559    1.71452849673356
H           1.35933430778830    0.87120764283904    1.88255695847168
H          -0.20677334029922    0.46869959328663    1.66387510544997
N          -3.49438656544370   -0.54571621290867   -0.55845198229408
H          -4.39112938090799   -0.98939304434937   -0.71178718420787
H          -2.62804215016766    0.57904608923270   -1.40108400269927
H          -3.46514418773162   -0.17578966876981    0.38377158452153
H          -2.75792992236182   -1.24062827933068   -0.63241871253594
