    23
        -45.37068251  Gyration_radius:  2.30508043524 Dipole_moment: 2.015
 S           0.38567386267626    0.25263773375101   -1.03217262704369
O           0.91307337882807    0.54758306333184   -2.45498766156027
O           1.35233555136012    0.81426447791281   -0.07361680536196
O          -0.90969082181382    0.90998151852855   -0.89997320332723
O           0.27319420199443   -1.18817319828573   -0.85406392144399
O          -2.86613680581696   -0.36364025609244    0.35683493755151
H          -2.20298391658886    0.07028515560850   -0.22641247384305
H          -3.41341550923678   -0.90120724138772   -0.21702398859468
O          -1.65776176292815    2.11414791420991    1.35660092745086
H          -2.47791478505285    1.62105924348150    1.47016218640778
H          -1.38743537566004    1.94235334461638    0.42977799440301
O          -0.72460256926155   -1.47777340030050    1.54978302159403
H          -0.28565332288059   -1.55927375341385    0.66809464220413
H          -1.64532841449997   -1.22939559696757    1.32681247467563
O           0.31015896370764    0.71302488601735    2.16814683271508
H          -0.47007443685081    1.36312247957302    2.01729991916201
H          -0.10773728087888   -0.25788972432290    2.06077602105516
H           0.87098390701344    0.80760707707973    1.27236514880180
N           2.95490071665507   -0.91023880043414   -1.80538796339104
H           3.31016948782933   -0.33882040122372   -1.04861477158719
H           3.71839849114451   -1.44052232170550   -2.20580791261425
H           2.27389537079174   -1.54893491477392   -1.40653975120261
H           1.78595106946477    0.05980270479253   -2.45205300605185
