    23
        -45.37068248  Gyration_radius:  2.30509170744 Dipole_moment: 2.022
 S          -0.07554839151792    0.67175311969700    0.90598514454873
O          -1.00260258909628   -0.44678363910765    1.00470930337707
O          -0.21409182515771    1.55721672579751    2.16547587848702
O           1.30812399174943    0.21467606801528    0.84148288272102
O          -0.40066279028929    1.50603955782003   -0.26324030098316
O          -0.54725287357550   -1.87015353317373   -1.14596568928483
H           0.29115113597666   -2.27616979652627   -0.84353524842247
H          -0.89774133371688   -1.42855039896634   -0.33432976595866
O           2.63010367597478    0.03119818514720   -1.46495191922021
H           2.87199032816230   -0.89706876801978   -1.37268532436348
H           2.33871178852976    0.30518881381046   -0.56961032299513
O           1.79147136159860   -2.29036307712521    0.12009898654801
H           1.81960236982764   -2.90806473895511    0.85187553378281
H           1.63303228500934   -1.40409591432798    0.51716346607682
O           0.22368749468318    0.21956793155314   -2.28243595553175
H          -0.15119424462437   -0.71614682687050   -1.94693113258898
H          -0.09121706052585    0.86993172370840   -1.50546773534131
H           1.23957377352901    0.17196947251997   -2.14144913421205
N          -2.70947426245959    1.79091665255254    1.50667856434215
H          -1.17991081284564    1.81326858945797    2.12717516490862
H          -2.67715076884291    0.79175467475983    1.32906655609964
H          -3.61636217643360    2.03562623505442    1.88379452625300
H          -2.58423909595147    2.25828897318251    0.61709654175527
