    23
        -45.37068247  Gyration_radius:  2.30506853255 Dipole_moment: 2.019
 S           0.77305579755521   -0.44186302959808    0.69644835726739
O           0.31705791649448    0.79824166871653    1.31443292170073
O           1.79970986406769   -1.08807760485439    1.65447250118989
O          -0.32975909065502   -1.36850059411555    0.48328408948385
O           1.46301584148479   -0.16425603934316   -0.57465857211322
O          -0.13049452549695    3.00564213838535   -0.11043380633592
H           0.24575546447851    2.35687331619181    0.52128263016333
H          -1.04043401801751    3.13396771093876    0.17990920156467
O          -1.99445597542993   -0.06552412099398   -1.06234775324942
H          -1.46189630328278   -0.72127716778088   -0.54944052691158
H          -2.35840885948309    0.52613987696145   -0.37186847328149
O          -2.25291695213915    1.43057774378889    1.16108328833818
H          -1.32688505180256    1.15420351059929    1.34646877462320
H          -2.78029246343494    1.09689710483388    1.88794214489061
O          -0.04966462729102    1.23632804720462   -1.94291756797626
H           0.68627991479684    0.63838917305437   -1.46675359023685
H          -0.94110174622679    0.70478910782960   -1.71538907383946
H          -0.07612526088959    2.07659193174119   -1.35355412865961
N           1.94512289508161   -3.00465502957998   -0.08366655921326
H           2.22910621521121   -3.97072200430061   -0.18643697919923
H           2.30539419158338   -2.46893553736984   -0.86378420917787
H           0.93214029000007   -2.94564220064907   -0.11995378105735
H           2.04579648338877   -1.91918801165166    1.15588111201843
