    23
        -45.37283332  Gyration_radius:  2.32900002605 Dipole_moment: 5.575
 S           0.31247240142532    0.11412557923800   -1.09551558336258
O           0.42598161055606   -0.79116015839202   -2.21298095513504
O           1.57056387079280    0.15813993282035   -0.30352803521011
O          -0.15507496039502    1.44080574840344   -1.40529320664830
O          -0.72192025083281   -0.57539873834375   -0.13097987504024
O          -2.34530268882579    2.49706050686593   -0.32784897953317
H          -1.54407349966887    2.19240699692942   -0.80433228650396
H          -3.08280522703560    2.32688013278462   -0.91479863281528
O           1.03190035672919    2.39261169397605    1.05146140174439
H           1.38898968880807    1.63054977425890    0.55711981253385
H           0.70368223496829    2.99182755494085    0.37517728614514
O           0.05000820487822   -3.09667714460162   -1.14106896446420
H          -0.88526688494557   -3.04798851279967   -0.92700152044459
H           0.21716762323615   -2.28610040925769   -1.69891540314429
O          -1.21731963361126    1.11530293679990    1.68800110790832
H          -0.37858473425190    1.63398336557886    1.67908355657475
H          -1.84644775799820    1.67483175431659    1.19256019815651
H          -0.95434536623582    0.07616475221539    0.62542669007304
N           1.50174389651470   -2.11446631391422    0.79049056983387
H           1.62426011248141   -1.10445167640460    0.34338701012794
H           2.40168862473570   -2.56264272914117    0.93095372632253
H           0.99702676143112   -2.02528920849929    1.66760457707108
H           0.90565563724806   -2.64051582777778    0.06099750581005
