    23
        -45.37182587  Gyration_radius:  2.4001603905 Dipole_moment: 5.908
 S           0.74444789425056   -0.06875202324702   -0.51852342535808
O          -0.44570813272544    0.35286743758152   -1.30897146248862
O           1.59900459251752    1.05009046097024   -0.21456131567706
O           0.13688789870255   -0.62576142659254    0.81834246119659
O           1.39607455399051   -1.19680735792311   -1.14016202548120
O          -0.68516545579520    2.75821849062386   -0.16278605235531
H          -0.67236040102045    1.95330825731093   -0.71379098987886
H           0.21787463868342    3.08727449001778   -0.19147923065469
O           2.04537566939495    1.95082750978525    2.24998109685722
H           1.99536100155488    1.68394011803293    1.30813575129043
H           2.72048044444818    1.39811073543432    2.64579377821871
O           0.02623103761752   -3.26319964179631   -1.86319746741705
H           0.66549761194877   -2.56476008091681   -1.55312676300938
H           0.18542602449169   -3.35315804359721   -2.80476116128688
O          -0.58379705204077    1.40457467901059    2.13209204048178
H          -0.79747613716484    2.01754278149959    1.38995470463234
H          -0.16791952984465    0.17279093668187    1.39562032395349
H           0.29245881939112    1.70324425214738    2.45025378088359
N          -1.78330284847057   -1.71210724042325   -0.78315191625825
H          -2.78013547955190   -1.75764981142610   -0.96737891111808
H          -1.22556916255822   -2.47141352375072   -1.27567583462508
H          -1.31124112199496   -0.76039067225386   -1.10817159084184
H          -1.57244489582328   -1.75879030716720    0.21556420892892
