    23
        -45.37469712  Gyration_radius:  2.38584677621 Dipole_moment: 4.765
 S           0.18699583430117    0.79582382241632   -0.74970314222479
O           0.68844905777742    2.14228885688299   -0.77093621713799
O          -0.74279714163723    0.48559815109420   -1.82881122006178
O           1.41404455167438   -0.19068280893703   -0.97189485714386
O          -0.36853868459439    0.40425372449857    0.55078226159268
O          -2.85130373647213   -0.27732943345729    1.05290261405574
H          -1.91379119439953    0.02821556878300    1.00562104502293
H          -3.38591837641219    0.51813336633330    1.04344310047223
O           2.56287402203182    2.87324508381579    0.94354927414688
H           3.27046775829684    3.25753217423114    0.42348207680596
H           1.81347469342859    2.74121182571023    0.32139234679867
O           0.29401985886795   -2.52692753274211   -0.14478320211485
H           0.79603133227227   -1.80447155984333   -0.56833953516708
H           0.37504649626237   -2.37435182914172    0.80025851271048
O           2.16768728365853    0.27557221250274    1.42503666781497
H           1.20872119106399    0.35716945030112    1.55319351040870
H           1.91951928192204   -0.05333219415944   -0.11671265036864
H           2.49863373396657    1.19940538367491    1.42968117477090
N          -2.01801646251348   -1.60118224772570   -1.09497275550440
H          -2.57959659794357   -1.24305896518959   -0.28725469087312
H          -2.57656386820623   -2.10367352001577   -1.77538006717601
H          -1.53513254045913   -0.72535083696023   -1.51788318088057
H          -1.22430649288549   -2.17808870207012   -0.72267104594446
