    23
        -45.37369001  Gyration_radius:  2.38647906926 Dipole_moment: 5.392
 S          -0.19675559615548    0.85795088254547   -0.79344806395862
O          -0.96154470294857    0.21788385508879   -1.85451334796834
O           1.30627465424015    0.38996334924378   -1.04705131035614
O          -0.21760959802682    2.29381579537459   -0.81791674152157
O          -0.53599191030197    0.29141597242331    0.51704963854643
O          -2.55123270154402   -1.26436620175876    1.13863988462886
H          -1.89086628387583   -0.55147896711728    0.96867847274649
H          -2.50887855313503   -1.44987908294250    2.07791790059948
O           1.31048727624482    3.60279503120722    0.89633767529708
H           1.80769591089159    4.24077374775745    0.38205068755021
H           0.64462367460400    3.22301866202540    0.28063442907732
O           1.22160794842107   -2.22218320035203   -0.33882446785269
H           1.43589661879890   -2.10920129801091    0.59029699565191
H           1.36345910176221   -1.34464111230665   -0.74562317944782
O           1.89142614324871    1.03692542960514    1.35913802044022
H           1.87227961955827    2.01754115061426    1.37150776775198
H           0.96247991680240    0.77449245278930    1.47269534927748
H           1.74705207997797    0.68184431220083   -0.19611774147298
N          -1.35582545566099   -2.17750353481087   -1.06128693393401
H          -1.25836174710737   -1.18017750587359   -1.48667726722254
H          -0.38436216366697   -2.43119901896627   -0.76687945725267
H          -1.95881751114443   -2.06360388411403   -0.21702757689761
H          -1.74303673098381   -2.83418682462177   -1.72958074368078
