    23
        -45.37469713  Gyration_radius:  2.38571073504 Dipole_moment: 4.763
 S           0.96842784155359    0.43010465953388    0.33085960321908
O           1.17301752629654    0.27458494464475   -1.23818122995380
O           2.16630650497981   -0.02139682984674    0.98353597792293
O           0.67353931767986    1.84363629794972    0.53146262150225
O          -0.20421652636933   -0.39883958387077    0.63250428569495
O          -2.39526648920573    0.36685862545316    1.85474357400630
H          -1.59952884847126   -0.05668662762627    1.45248158325425
H          -2.19914877327244    0.45689994074791    2.78853563189749
O          -1.40909908544520    0.47316416878553   -2.07002621711236
H          -0.44102600629406    0.49160805481555   -1.94416913414610
H          -1.67826335762699   -0.42265150210851   -1.85044941364467
O           3.03119320326856   -2.48627081967543    0.57906754306768
H           2.76189842081705   -1.58667355735409    0.86929068090979
H           3.94634479031221   -2.40986502474869    0.30447165523858
O           0.87711239160023   -2.25108795909379   -0.98320042935227
H           1.19327165032753   -0.72433907711112   -1.32438304755853
H           1.68204997834706   -2.57255055375025   -0.52289756920498
H           0.28604213103970   -1.96003635618178   -0.26998400588368
N          -1.79918256120722    2.14356001597756   -0.02933108010557
H          -1.85545200924030    1.57836416919454   -0.91162655354587
H          -2.16908590203888    3.08015073486913   -0.14483068963109
H          -2.26647923295014    1.61017263252478    0.74076483948546
H          -0.74245496410281    2.14129365687142    0.22136135394085
