    23
        -45.37283342  Gyration_radius:  2.32779436194 Dipole_moment: 5.571
 S          -0.29788248370680    0.20274842751872   -1.09218329374403
O          -0.01788979287207   -0.43973494141882   -2.35309480025346
O          -0.37229427428685    1.64089074849183   -1.12160620222347
O          -1.49763744998911   -0.38503128543984   -0.43859473620406
O           0.89370571728317   -0.22382774052672   -0.15720466922412
O          -1.91240788725616    1.57246426343166    1.32492137761025
H          -1.93016355756307    0.84680805212633    0.67234032287280
H          -1.82001183978062    2.37263127985828    0.80018456169719
O           1.19987605819974    3.20088247499677    0.35090509739567
H           1.96224468836184    3.44446054345459   -0.17519640893058
H           0.59599167663936    2.71959605494076   -0.25372599158449
O           1.18147036441501   -2.60277558989844   -1.65321995030563
H           0.73109498794931   -1.82075445775889   -2.07962955877401
H           2.02106447285110   -2.25286925372293   -1.34433957316046
O           0.63294689321869    1.12642264720362    1.96934257805218
H          -0.34035225682776    1.28538352032532    1.95948279470831
H           0.82966110374102    0.30143282939894    0.72050148077523
H           1.01277616171176    1.96718986144313    1.64833094724580
N          -0.58002879661165   -2.62606229804260    0.27027824431615
H          -0.16729185799615   -2.51706076779367    1.19220740756384
H          -1.07475062248905   -1.67301055595742   -0.01486814304995
H           0.18835200397944   -2.74123645263292   -0.47845326846437
H          -1.23847327897517   -3.39854737999850    0.25362179367645
