    23
        -45.37369003  Gyration_radius:  2.38662773642 Dipole_moment: 5.394
 S           0.98204944290293    0.00302072022130    0.66373908614834
O           0.51486150012969   -0.22778107291172    2.02347397675522
O           2.39228376158141   -0.18830022484987    0.47060536985175
O           0.15612682992968   -0.72242039095065   -0.30835281779287
O           0.65816666634149    1.53945202801559    0.38603674434184
O           3.43320501330245    0.41837714011278   -1.88233979092330
H           3.14125334302117    0.08120712692827   -1.00611743419716
H           4.18529253498108    0.98589615581099   -1.70631941752461
O          -1.60574161694851   -2.60821451990992    0.14670669632429
H          -0.83601871980639   -2.02855659431554   -0.06467469155730
H          -1.96594733454306   -2.89195961344363   -0.69478952348285
O          -2.04167048162586    1.53195835809031    0.18303810916475
H          -1.09533121780064    1.70094328765573    0.36072588528062
H          -2.09840013522661    1.37266048251345   -0.76204032330205
O           0.86395806617636    1.10656566532134   -2.12793385507551
H           0.80608186495731    1.59371744212123   -0.60334807712310
H           1.82117109481451    0.96040829812305   -2.28439377256098
H           0.53159428338158    0.24273693800550   -1.83130125968024
N          -2.00708159112376   -0.57999683383782    1.82799671783127
H          -2.54394313170398   -0.60687384442196    2.68754714604271
H          -2.25672924124103    0.23786098575482    1.22513740451744
H          -0.94257104252626   -0.45951314065360    2.02148752728837
H          -2.09260990897032   -1.46118839337999    1.27511629967404
