    23
        -45.37182632  Gyration_radius:  2.39855885339 Dipole_moment: 5.927
 S          -0.43619887739799    0.67904180721970   -0.43487023868877
O          -0.78757340602729    0.88120729216102   -1.82025711767460
O          -0.26644808121592    1.87959683388272    0.34253692393036
O          -1.38801105664866   -0.26283024149958    0.21788494167597
O           0.92171996638634   -0.10897133888566   -0.46187264940500
O          -0.71663025534432    0.37727512662396    2.72662612090056
H          -0.72660242246267    1.33842168195492    2.70133972334061
H          -1.11124068709185    0.10381741827373    1.87735576580425
O           2.02552591540655    2.58796718613066    1.49483095588656
H           2.57063381707774    3.00680819144844    0.82755987150386
H           1.14589718810670    2.45748349802879    1.08229745294244
O          -1.21537810736383   -1.15152256601474   -3.35326105914783
H          -0.99110466827109   -0.30210446931875   -2.88287238971236
H          -2.10371276036477   -1.02704615716652   -3.69275617531279
O           1.78390190651046   -0.05635013902464    1.90930192218975
H           2.11680430413403    0.86393469229394    1.93306047838184
H           0.92834151562942   -0.02037203174858    2.39802625041313
H           1.31832916080011   -0.10855633656429    0.48993237206550
N          -0.61356056706322   -2.28010640502384   -1.07115919716518
H          -0.90244130539800   -2.03146164648979   -2.06389243368510
H          -1.06158859729439   -1.48178157295071   -0.44133929042010
H          -0.88318882548130   -3.21828717800522   -0.79418918667024
H           0.39252582336788   -2.12616363530945   -0.98428302116500
