    23
        -45.37824519  Gyration_radius:  2.39127474778 Dipole_moment: 5.933
 S          -0.07109267923183   -0.21192560374333    0.92632996338636
O          -0.93332497887607   -0.24250859425196   -0.27678336426451
O           1.01006100670696   -1.16510392178640    0.78667916023087
O           0.40867544558895    1.14541065842276    1.15963090486644
O          -0.94967958903685   -0.63684441530720    2.12620493956135
O          -3.09845473968258    1.24976896274503    0.08809251938910
H          -2.30739369943760    0.71320437900428   -0.13393978076979
H          -3.83632517473425    0.63785602040752    0.10990457613981
O           2.43015387447304    1.04969785666294   -0.48404079833260
H           1.70222746067502    1.24902843840092    0.15538775147430
H           2.98026850268719    0.41447106261625   -0.01827742915869
O           1.51748454115444   -2.74663863075206   -1.24589825402281
H           2.33128537639221   -3.21636680088994   -1.05705620636034
H           1.26091546142244   -2.29888560883226   -0.40476835023227
O          -1.88701363237419    1.72666108116760    2.44665619861259
H          -2.48235323757002    1.76001602892481    1.66880420971332
H          -1.41453855419090    0.20964476833020    2.40761109211057
H          -1.01639398953280    1.99310192062314    2.11267194015616
N           0.87563645026666   -0.31999448101137   -2.12008576036138
H           1.20126149717988   -1.31174077881003   -2.07269160053446
H           1.59008632986971    0.29194385647698   -1.62677481822537
H           0.67254613960004   -0.01318323212209   -3.06494095195518
H           0.01596818853326   -0.27761295630990   -1.48271594148868
