    23
        -45.36462786  Gyration_radius:  2.41619005393 Dipole_moment: 3.609
 S           0.61512341652742    0.49621001874104   -0.77315651649732
O          -0.25335343703500   -0.44096356270715   -1.43546619627176
O           1.70841729406539   -0.11259484041591   -0.05086695665476
O           1.17874763715324    1.47925753697896   -1.81209754574627
O          -0.17141606706563    1.38819379671795    0.17444570399057
O          -2.93054890140506   -0.54606784848646   -1.30468864382085
H          -3.15112840492810   -1.47891010918396   -1.34595846635686
H          -1.98432544142841   -0.47686226597556   -1.53672508590743
O           0.72158547353861   -2.59799819836506    0.04904102425085
H           0.28601830859406   -2.50396253906762   -0.80366457400636
H           1.26586863219987   -1.79209878477592    0.12144170526937
O          -1.17273723445647   -2.04526185060663    1.83446967582844
H          -0.76159486741687   -2.12426304961073    2.69629932766040
H          -0.49017166660299   -2.32698441542738    1.17808722928358
O          -2.17276378833467    0.28952484653249    1.09567649534118
H          -2.66054099260596    0.06377932429684    0.26699394358569
H          -1.84546482957731   -0.57612446703984    1.44968730777995
H          -1.07226558597945    0.93102289585173    0.61136379410590
N           2.66508400679043    2.56705222636555   -0.02477168116270
H           1.81691281415950    2.05426804611120   -1.26417811609943
H           3.59148601660040    2.96846592902581   -0.08725328789354
H           2.09340461676749    3.14536029144091    0.57679566376442
H           2.72366300043975    1.63895700960483    0.38452519956023
