    23
        -45.36965422  Gyration_radius:  2.26182668843 Dipole_moment: 3.833
 S          -1.31904043656394   -0.24606375022459    0.12968726943199
O          -1.36932502143620   -1.65072271954071   -0.19096610131837
O          -0.22922176814526    0.04983038224697    1.07407366133605
O          -1.14368198248926    0.59459720398207   -1.07119687834028
O          -2.64647717404781    0.16627658889753    0.80046719561555
O           1.57635851294755   -1.89556944444028    1.17394695290759
H           0.85131395097539   -1.23324945284372    1.23896132442068
H           1.32674269644295   -2.61392626599465    1.75689794989427
O           2.09483407928545    0.83338067518017    0.12404288481410
H           1.22125797613373    0.70622169479737    0.56560549855321
H           2.66348499033567    0.15782092195672    0.50695188368581
O           0.86279552694310   -2.34539463548912   -1.37188689942767
H          -0.07797081787504   -2.28677247302545   -1.08242819917717
H           1.35333592250174   -2.35610042744772   -0.52168059822533
O           1.05696871359287    0.04046148441553   -2.06620991832277
H           1.62613402272548    0.42874378052456   -1.30797962533739
H           1.04865424441964   -1.01808273286983   -1.90173642839140
H           0.08066612975839    0.32321008979423   -1.77681409874143
N          -1.79091930446608    2.61918413539539    0.82050929344685
H          -1.00682612617319    2.63856676215892    1.45946108513913
H          -2.51410573064265    1.15002867857157    0.93631660169859
H          -2.22903406098917    3.53101530344421    0.81063547655417
H          -1.43594432304963    2.40654420989809   -0.10665834041268
