    23
        -45.36462779  Gyration_radius:  2.41580117023 Dipole_moment: 3.605
 S           0.41696584789219    0.26558694526516    0.98784773321943
O           1.51373178760073   -0.57026772387828    0.55652159240047
O           0.81380598516682    0.99567838832243    2.28130351120742
O           0.22602850873560    1.39220147021408   -0.01523919010301
O          -0.81729530329909   -0.44141855205405    1.20686164751305
O           0.06637740148180   -2.69041201019458   -0.19787732143616
H           0.77464015606521   -2.05596994267895    0.01876722929807
H          -0.59574022346362   -2.53585576606666    0.48282216378291
O          -0.93023376340782   -1.54114699827880   -2.38128605566309
H          -0.59531670277400   -2.03549560904570   -1.59413202284435
H          -0.28207108675336   -1.67436630697621   -3.07423514474986
O          -3.23970326966686    0.18641476238038    0.24194080454543
H          -2.43801005907427   -0.01586088740876    0.76204238043580
H          -3.67457609949758   -0.65314672872447    0.07882321661586
O          -1.54642018278849    0.92787051923911   -1.65940391661637
H          -0.55594860791226    1.22045406150258   -0.77129447427005
H          -1.33094144953258    0.02862756167808   -2.01546421611841
H          -2.32287864196881    0.79253377769508   -1.06398792286289
N           3.02394354064357    1.74965720822945    1.21660078696556
H           1.71434091276592    1.41022400463630    2.04593257437355
H           2.99706096811772    0.86662532665498    0.71473254749551
H           2.83999991572483    2.49597427599185    0.55905809326411
H           3.94224036591397    1.88209222351425    1.61966600352324
