    23
        -45.36965405  Gyration_radius:  2.26120303424 Dipole_moment: 3.836
 S          -1.11086303067433   -0.38611246427099   -0.66119509952862
O          -1.89369568779215   -1.55886484793867   -1.28902522825581
O          -1.44963219306438   -0.33854345622295    0.77483854419320
O           0.32469428035105   -0.68306506080011   -0.79614282624412
O          -1.46161525152742    0.83396502844049   -1.34457620128382
O          -0.17003062269865    2.83343420979786   -0.25287525972809
H          -0.84060471739975    2.27745354410164   -0.71509430504888
H           0.66640412270630    2.58895640738337   -0.70492714664089
O           1.96583361413844    0.10291757150703    1.10287948743045
H           1.40751139059005   -0.36327587832866    0.43559404806527
H           2.57372849292067    0.63812256337774    0.58293525628646
O           1.73004081301426    1.44495885055133   -1.53846861975866
H           1.20399803173600    0.62663018399044   -1.38986993697475
H           1.71587829120762    1.59593688143108   -2.48462496535786
O          -0.08151853732806    1.44633902527127    1.81565015036666
H          -0.12283817808003    2.16625265203941    1.02293341883303
H          -0.75833667723395    0.70529284301846    1.48487147645641
H           0.82153158308997    0.97530385887294    1.70777242843104
N          -0.86605978016874   -3.11323315596416    0.52120987459081
H          -1.60388184977510   -2.33047399444119   -0.71973475652884
H          -1.03490365412172   -2.33772463785656    1.15429292612503
H          -1.14136318734637   -3.97759140668546    0.96910207489514
H           0.12572274713426   -3.14667872710243    0.32445465970834
