    23
        -45.37036732  Gyration_radius:  2.38102469276 Dipole_moment: 6.228
 S          -0.98546564718320    0.02879434619284   -0.34647903822572
O          -1.81391500325702   -0.58581474973662   -1.37969840366174
O          -0.60153882348993   -0.97782052181954    0.65936757758789
O           0.21573419496628    0.63643656878596   -0.92667952664953
O          -1.81555336110098    1.11903317259088    0.33149581671790
O           0.40664313747881   -0.12327551777878    2.95202751579660
H           0.10527174145774   -0.49654958202838    2.09460603765217
H          -0.16528260561795   -0.50200785256887    3.62186496022386
O           1.35804355678273    2.81432359100570    0.07826034408357
H           1.03591161431284    1.98286274543802   -0.33056264660632
H           1.09345798206667    3.52071222739159   -0.51340612826000
O           1.56891515244703   -1.18361427134215   -2.23781412657603
H           1.16574116003865   -0.44620069169365   -1.71336357635934
H           1.65506107205904   -0.84773419820796   -3.13177598372422
O          -0.37240794698996    2.26810702917948    2.04409328947343
H           0.00884197802868    1.50036857015693    2.52498918763376
H           0.35132278427964    2.60753125299814    1.47280179531966
H          -1.26212827180813    1.61922607627891    1.05895691222018
N          -0.38373442010352   -2.65642043493281   -1.27079887609790
H          -1.15535807987780   -1.95343020126483   -1.54973454699458
H          -0.29128649682249   -2.35317232613961   -0.27064584933859
H          -0.60466419593148   -3.63759041250256   -1.39930403402376
H           0.48639045825926   -2.33376482000124   -1.76820070019442
