    23
        -45.36965411  Gyration_radius:  2.26212608917 Dipole_moment: 3.833
 S           1.32137009608013    0.26074891643672    0.04225024831986
O           1.13121507000215   -0.91427625570189   -0.83115261397105
O           1.38351009823112    1.49158203937547   -0.70600805679362
O           0.23400606525258    0.29016893010637    1.03414119267394
O           2.64835435958480    0.06713951476613    0.80625443478628
O          -1.55289434641001    2.18670130400941    0.51958922268197
H          -0.83378953692712    1.57095309303750    0.78858960835986
H          -1.29357363405513    3.04932362602433    0.84633234894767
O          -0.84867672411121    1.80220199094653   -2.03936124893164
H           0.09317622572569    1.82753896823270   -1.74826539290236
H          -1.33432678235711    2.08613691844496   -1.23488762529535
O          -2.10251867912092   -0.72913490079889    0.38673129455373
H          -2.66301109939870    0.03847966559681    0.53833983877688
H          -1.22525204147183   -0.47833069239020    0.76332452909459
O          -1.07018232077273   -0.67822336974977   -1.94452229217692
H          -0.09527597801342   -0.86607824708161   -1.58347768039610
H          -1.63850080184755   -0.80136318648402   -1.10100450535368
H          -1.05030982199906    0.37833843465274   -2.12253476459151
N           1.77355237251771   -2.24703270424679    1.59905164265119
H           2.20809546769510   -3.11949265050904    1.87024445378677
H           1.41285886493806   -2.33075710794212    0.65361813970350
H           0.99416013654270   -2.06236561125791    2.21704315945706
H           2.50801300984877   -0.82225868547449    1.24570408671231
