    23
        -45.37202097  Gyration_radius:  2.35717609843 Dipole_moment: 5.565
 S          -0.66357280585790    0.57745638240068   -0.63953490854914
O          -0.97868733506543    0.47062080886868   -2.05628104787238
O           0.78266534412409   -0.04064288914384   -0.52145277763098
O          -0.62055434518177    1.91745601756423   -0.11410363983633
O          -1.52642487603338   -0.31634709061066    0.15666964994302
O          -0.93789670859042    0.76842052092219    2.52015023711124
H          -1.28336223875299    0.30468060026428    1.73294522255407
H          -1.05668356942509    1.70251179320245    2.32610952442329
O           1.55225524193120    3.01506720644579    0.97351002029964
H           2.06942959379816    3.40427505883359    0.26715238417548
H           0.70639701130047    2.73427460825979    0.56613619823982
O           1.10033451199342   -2.62952560932539   -1.24390261888716
H           1.47185067112839   -3.07148590393366   -0.47805111115419
H           1.17747136789816   -1.67082880952077   -1.06733002335464
O           1.60197526534832    0.46085860334302    1.80234720609333
H           0.73754847753169    0.47990528975506    2.27877163335551
H           1.15659391150242    0.13571427717335    0.43284933155822
H           1.83032364246269    1.40489760046835    1.67700651511459
N          -1.44643842980739   -1.98891723947981   -1.74908548142979
H          -2.18682553577844   -2.53098609201971   -2.18005817619846
H          -1.26122488883300   -1.03506319077489   -2.21435309004975
H          -1.68469980879719   -1.59182763480462   -0.79300516876219
H          -0.54047448689823   -2.50051431788667   -1.67648986913896
