    23
        -45.37874203  Gyration_radius:  2.34154317401 Dipole_moment: 4.657
 S           0.81893426903584   -0.76900960829643   -0.04846718092182
O           1.00335987328434   -1.08140351519844   -1.45809733207921
O          -0.27558748214829   -1.54416388308713    0.53664884252201
O           2.12965112726174   -1.14299061725233    0.68492647042355
O           0.58099544480236    0.66417186697297    0.15139320569100
O          -2.29647907186570   -0.15631509783058   -0.38521539436948
H          -1.63806633167807   -0.78499264842291   -0.00330249854758
H          -2.23131278412253    0.63116914771950    0.16100337453391
O           0.32308367189990    2.39343354078701   -1.80834099682717
H           0.43720376437057    1.84177537333178   -0.99675406105122
H           1.20802963615181    2.64300591313510   -2.07923955218161
O          -0.49411741234917   -1.12708385615800    3.13828440021672
H          -0.42685401645699   -1.97267471238308    3.58464506993391
H          -0.49515741113281   -1.32778155845899    2.17614676854484
O           1.62094015455267    0.44899063018428    2.63462356049712
H           0.88553842180727   -0.03650340762343    3.06400312885767
H           2.10799347310733   -0.59754359296536    1.52625445481168
H           1.20181345369332    0.96638495455546    1.93038974531426
N          -0.91393321841949    0.19167098098878   -2.60610337020315
H          -0.54119312623868    1.16973617579213   -2.55589450294950
H          -0.10141736411227   -0.42954487807061   -2.27905305793200
H          -1.64151747483697    0.08115002588174   -1.84396455513917
H          -1.26190761661010   -0.06148121359454   -3.52388653914480
