    23
        -45.37874217  Gyration_radius:  2.34140940351 Dipole_moment: 4.657
 S          -0.61522304017809    0.71725321024062    0.60713020887485
O           0.08889055176660   -0.56684869093933    0.68467102941290
O          -1.76120515955032    0.69751676739702    1.64749473087605
O           0.26642721776066    1.82355671201776    0.95017512350248
O          -1.20095901976474    0.88711756099751   -0.72291265249958
O           0.85347695010175    0.14124369590934   -2.16742274899956
H           0.02259296591543    0.47683245878953   -1.75362948554834
H           0.84291471911805   -0.80609000936283   -2.00882265321901
O          -2.95367392175397   -1.01409890687997   -1.27381188355739
H          -2.30861220510088   -0.28134467502186   -1.15983814419226
H          -3.79213630745600   -0.59849346132482   -1.48127239171892
O           2.65574071135299   -0.80036843326952    1.18812295618811
H           1.68173613414744   -0.83431297520631    1.02619111783269
H           2.75944404959198   -0.75397560191121    2.13991485312840
O          -2.26601739301760   -1.78133562929281    1.20578203996953
H          -1.31051727439008   -1.81199982999143    1.04645700190745
H          -2.11197070151327   -0.24142515712665    1.61299222393550
H          -2.66942022164755   -1.71621796782987    0.31472397567253
N           2.40529458056625    1.31589346641970   -0.38437088923270
H           1.94845823630515    0.88257159051325   -1.23621685225379
H           3.08182369035687    2.03280271142808   -0.62074365785015
H           1.57842633351373    1.69131950243438    0.18888658507714
H           2.80450909386947    0.54040367201674    0.19649952269759
