    23
        -45.37874202  Gyration_radius:  2.34162692099 Dipole_moment: 4.659
 S          -0.80632190203045   -0.68078392149731   -0.38694100648189
O          -0.53282013009593    0.32664192016350    0.64291062915168
O          -2.32530920630231   -0.66118147673427   -0.68356925318318
O          -0.09031666741202   -0.34522731488501   -1.61806748850217
O          -0.47068902614114   -2.01765900686383    0.08107022448961
O           2.24663464669944    0.23293380436224   -0.58543753155632
H           2.05187961175396    1.07927237425770   -0.17495259104480
H           1.43861237577374    0.01221771297925   -1.10763940042336
O           0.60188235591856   -0.21108348946869    2.94915378569408
H          -0.08844986561424   -0.53108514372888    3.53216860872456
H           0.13999259585180    0.09918502733742    2.13273968736449
O          -0.83265606132394    2.00184248801210   -2.58237068586051
H          -0.48671763651896    1.13047336959163   -2.28730250751945
H          -1.13941304257721    1.87406553234266   -3.48147364785860
O          -2.44849646357829    1.89249901906292   -0.44049221216732
H          -2.57372146877084    0.30947724007443   -0.64143906675488
H          -1.74961574217492    1.73258173611892    0.21158471387243
H          -1.97694332867068    2.16553996178213   -1.25532828303492
N           1.84567550565710   -1.71033493742799    1.15521491804459
H           2.21766209026663   -0.97014825233834    0.49510311540470
H           1.57151741780344   -1.23637186090210    2.04880979362944
H           0.91711084725042   -2.01179410042968    0.70799315247770
H           2.49050309423778   -2.48106069180762    1.28826504554216
