    23
        -45.37874206  Gyration_radius:  2.34155908096 Dipole_moment: 4.658
 S           0.76104089267738    0.47993572000042    0.67405989732989
O          -0.45935179671918   -0.33307031857290    0.69264015048275
O           0.82631749294262    1.27469194028103    2.00061306672849
O           1.95057080054126   -0.35628081180558    0.60741118520366
O           0.71005898961385    1.43394295049516   -0.43432630447333
O          -0.48202638225172   -2.94636303184552    0.43442619506693
H          -0.59022919992481   -1.97431382103803    0.57405918342042
H          -0.29948649566611   -3.31432649934694    1.30049233730879
O          -0.11583088781462   -0.18152831088845   -2.32352587591279
H          -1.03131921622953   -0.30456494391115   -2.05993956960525
H           0.22788848006427    0.52361664308034   -1.72428699082934
O          -1.34418971669463    3.08415521909448   -0.21762799445399
H          -0.56796776788672    2.50500600842690   -0.38518934220504
H          -1.00923907340205    3.98222645627021   -0.21986901223278
O          -1.71339793552719    1.65384939870879    2.02471166084139
H          -0.12541155495967    1.53321987464125    2.18256123539176
H          -1.79691788398812    2.29776028620896    1.29033269442563
H          -1.71492312514342    0.78438103405410    1.59660751717553
N           1.37837512167804   -2.06226275567537   -1.23012198618062
H           2.09076387426012   -2.57354729446073   -1.73862402006165
H           0.80624061911855   -1.42299944500254   -1.85164697315757
H           0.71420285955403   -2.68076807966075   -0.70620849545783
H           1.78483188575684   -1.40276021905157   -0.48654855880319
