    23
        -45.36624152  Gyration_radius:  2.3981321853 Dipole_moment: 7.341
 S           0.47655197512324   -0.34162159618938   -0.79226553981008
O           0.90200013960238    0.67547873802598   -1.70802654868874
O           0.52880221327755    0.26511992293639    0.67831105845020
O          -0.95947117701215   -0.69211142204740   -0.93245092962416
O           1.29087774010816   -1.53631675478080   -0.76351021258147
O          -1.90127887100104    1.69066178428022   -0.07582708533601
H          -1.37738872512796    1.71474955459729    0.72903783053012
H          -1.67415378033824    0.85387916313348   -0.51987285777723
O          -0.04780460094285    3.18734487522947   -1.44936626739596
H          -0.90947336085380    2.93554094817488   -1.07393814028746
H           0.27425951042256    2.37599513501204   -1.87936014776556
O           0.75247996657046   -3.62634385926661    0.65069665339884
H           1.11549725052943   -2.86914694349735    0.11578597491637
H           0.63757968644159   -4.34697122640203    0.02837650416422
O           1.66635188313643    2.54185275919606    0.42819729663267
H           2.46715063379106    2.38855589625269   -0.07836542845575
H           1.02885650902943    2.95820762066505   -0.21894649823662
H           1.02350446933757    1.14534704440407    0.62417101381934
N          -1.09001089920270   -1.88012454384201    1.28286991636883
H          -1.99441949938191   -2.11189844957037    1.68110218050366
H          -0.59020171088809   -1.19262286555339    1.84739740815456
H          -0.45988974768795   -2.72681802790074    1.14923643636125
H          -1.15981962492704   -1.40875776284530    0.27674736265707
