    23
        -45.36624148  Gyration_radius:  2.39816296357 Dipole_moment: 7.341
 S          -0.85242118456535    0.48709016533018    0.08830467527176
O           0.73251691680785    0.46870144209930    0.23275267270442
O          -1.18625399481409    1.30019895633804   -1.04375576764168
O          -1.16257074656480   -0.95101973229915   -0.11222459452501
O          -1.36659867332549    0.94541200581446    1.35983477664405
O           0.18907988416146    1.01326668735113   -3.34679432077368
H           0.39106877530623    0.06842378989707   -3.23140039370968
H          -0.56187755995552    1.17407934174208   -2.74925803975596
O          -1.08915674581778   -0.33326125479867    3.58357026841262
H          -1.97613725963537   -0.53525606463649    3.88737154613497
H          -1.20691136521907    0.29341685067892    2.81884063519200
O           0.68401416147777   -1.35633114428590   -2.04219204586918
H           1.41725121400128   -0.97512303655555   -1.55241304389425
H          -0.09295652923029   -1.29044712089398   -1.45833142028325
O           1.58406440211834    2.18603522578921   -1.46019116017648
H           1.07873583390622    2.98792199118910   -1.30849813240313
H           1.10013888315122    1.17836805166095   -0.38660355569008
H           1.19192362058773    1.78819619207797   -2.28873973956416
N           0.24862565043425   -1.72927418241832    1.82155895418300
H          -0.42583004303320   -1.51651571818495    0.96191661693313
H          -0.25117076065504   -1.32963837639212    2.67149449575469
H           0.47855939206310   -2.71328874701764    1.91708439665431
H           1.07590611879960   -1.16095532248142    1.63767317639138
