    23
        -45.36624150  Gyration_radius:  2.39808636196 Dipole_moment: 7.341
 S          -0.14286727844531    0.80356306612889   -0.55252124690883
O           0.15173583797313    0.62283254540139   -1.94343505034908
O          -1.47283797649163    0.27129526534789   -0.16194939275612
O           0.84474728043589   -0.12113358934192    0.28563641792450
O           0.03612465087878    2.14609613031543   -0.04565032944428
O          -0.53063069672674    2.87623102888513    2.36321227944201
H          -1.20443952533575    3.55423499057449    2.28468361958020
H          -0.20476692244450    2.71747072503549    1.43579289919031
O          -0.85663899450595   -2.32502955586522   -0.58363260281262
H          -0.05012561981824   -2.31613970373109   -0.06181558245441
H          -1.22286785939125   -1.42404097157023   -0.52835490181663
O           0.52513100887767   -1.86536792836547   -2.91627178427581
H          -0.06840433599868   -2.31372514859521   -2.28895446365649
H           0.24997323926070   -0.93254856516081   -2.88392918139942
O           2.51454761103304   -1.04255583700844   -1.41793383550539
H           1.55387539643331   -0.45997843899739   -0.35070936459243
H           1.86885585332589   -1.49567474278873   -2.03143556591896
H           2.83809263575230   -0.28735461086339   -1.91428211350195
N          -0.97963332935186    0.29975764060039    2.30637742086671
H          -0.88476355118445    1.33561401690322    2.52988582850332
H          -1.58821066977447   -0.19563986844974    2.95018236610502
H          -1.33138591362128    0.26168407664955    1.25096296576235
H          -0.04551085087068   -0.10959052511230    2.27414160802915
