    23
        -45.37874216  Gyration_radius:  2.34141681881 Dipole_moment: 4.659
 S          -0.05043030096198    0.60067940191132   -0.94803595675569
O           0.24747243558102    2.03377865657048   -1.45147724848381
O          -1.21088271195970    0.11367764444068   -1.67934875076684
O           1.12894441870914   -0.22993023579502   -1.19330102872080
O          -0.32164519724157    0.67362330335549    0.49132214084508
O          -2.55093722141012   -0.15653901148750    1.60417758164669
H          -1.69117736795641    0.21724138294432    1.29244503940813
H          -3.19131431593854    0.55027870417506    1.50848761363417
O           0.54809340806177   -2.23401338190790    0.39066554592625
H           0.87268539679732   -1.57132787738292   -0.26496373890506
H           0.70182393349879   -1.82834485108089    1.24765167707278
O           3.28625696920840    0.75740361482111   -0.02660787742172
H           3.95502696373865    0.89467429483658   -0.69935362571817
H           2.53496541365954    0.31263947709236   -0.47801119606811
O           1.51562611152918    2.64197800651899    0.69720652315358
H           0.87109555408410    2.03566946963391    1.09253495961668
H           2.32639324130910    2.10494288709253    0.57423163073655
H           0.77583007543288    2.45299090373616   -0.70928113857216
N          -1.98018018976791   -1.91242204312223   -0.29459422875904
H          -1.76084703622541   -1.13413265084724   -1.00114628114483
H          -2.54998722305162   -2.65387948047436   -0.68585246868167
H          -1.02542019815587   -2.24740363781460    0.01938245975466
H          -2.43139215894204   -1.42158458721781    0.51386836820188
