    23
        -45.37716566  Gyration_radius:  2.39554732364 Dipole_moment: 5.427
 S           0.59500081567332   -0.24327676816572    0.67295616199080
O          -0.58510101159469   -0.07762435281978    1.51482949046587
O           0.21402204488205   -0.80662951095028   -0.63610008254399
O           1.05782747412586    1.23109678273096    0.37296127046143
O           1.68362236068649   -0.95210591694506    1.28712545956116
O           2.76961911441386   -1.74916989962866   -0.97547461682284
H           2.53006159666431   -1.68935024877130   -0.02841735682517
H           1.91124763125860   -1.74407149849941   -1.41453159173144
O          -1.57517350532391    2.14277702726228    0.48761983406981
H          -1.23295089894516    1.41947831613571    1.06025508785377
H          -0.79075691590586    2.64950491071814    0.26090200530935
O          -2.93255867786862   -1.24302080354142    1.14263263452139
H          -2.02704008338196   -0.96351544040147    1.40566177986747
H          -3.51527745943515   -0.92375658701812    1.83404384501426
O           3.33900350868055    0.81658160206128   -0.77867389302513
H           1.93713457507743    1.14588076750835   -0.09197582523143
H           4.01070742189234    0.85084681298156   -0.09382813810098
H           3.23375048694422   -0.14571413877250   -1.00084222329846
N          -2.15411015842021    0.06260244070986   -1.04381715401923
H          -1.14900861843014   -0.34687462274523   -0.98869668650410
H          -2.07445625523900    1.03126199219764   -0.64103826488684
H          -2.53681212687236    0.04173593690478   -1.98200719020893
H          -2.70875131888349   -0.50665680095188   -0.36358454591893
