    23
        -45.37874205  Gyration_radius:  2.34165516984 Dipole_moment: 4.661
 S          -0.97075484158088   -0.06639800852894    0.56299791723295
O          -1.86332007777620    0.80264135635108    1.48155874249895
O          -1.08376247879377   -1.44343906116303    1.02079384210742
O          -1.44047463614703    0.08395808940895   -0.81460281099864
O           0.40759519534713    0.42051505345340    0.67869585133220
O          -1.41977054319106    2.61093364997613   -1.59177760144516
H          -2.30462357773517    2.84492105179818   -1.87642812724616
H          -1.44448593606898    1.64877073658017   -1.39274491748185
O           2.43050903023172   -1.07798873522850    1.42587642587002
H           2.42409975596566   -1.09849503958668    2.38418137364064
H           1.74333989800824   -0.41667506004708    1.16777906274536
O           0.65566226811154   -0.86398724814895   -2.06694904793886
H           1.27690587010687   -0.14261898167240   -1.93859561734124
H          -0.20552834870468   -0.52027995545323   -1.72828419459162
O          -0.54527461624755    2.93546381423185    0.92629291133803
H          -0.83389378666021    3.07884425698788    0.00050998500988
H          -1.48991847743621    1.72858616148098    1.38662687876242
H           0.19026493209452    2.30737296096253    0.86480060520670
N           0.91044739750748   -2.61256617717474   -0.10643516370468
H           0.91274517676564   -2.06130302382777   -1.01103955518259
H           0.94059429099139   -3.61486648264944   -0.25480167704971
H           1.69391676452766   -2.25501650816868    0.49058641347540
H           0.01572677067741   -2.28837285957959    0.39095868376766
