    23
        -45.37036744  Gyration_radius:  2.38069185856 Dipole_moment: 6.236
 S           0.07426146547340    0.96989180776163   -0.37866331624540
O          -1.17172915668058    0.55418861349433    0.28990399566323
O          -0.16701971796137    1.03275724467685   -1.88703897393990
O           0.46148013495954    2.30488792274211    0.06775370162885
O           1.13472232311437   -0.00478371864255   -0.10637681289907
O           1.61397815253171   -2.09391962494424   -1.67700714453644
H           1.47972652111501   -1.38323271362058   -1.01444817189748
H           2.38830058275931   -1.84194454981164   -2.18310622940865
O          -2.44880554973402   -1.55190999584887   -0.67703754798392
H          -1.97879353291810   -0.81052212388152   -0.23565570674312
H          -3.33345864919456   -1.23227475352981   -0.86259707279694
O           1.68054606761073   -0.00415633206826    2.45568676711492
H           1.49839390369362   -0.12478071974363    1.48941453805787
H           2.61739379627680    0.19024175681975    2.51976201760780
O          -0.72152075426223   -1.28399169772851   -2.70048539082403
H          -0.41112606091071    0.09539582279207   -2.27076655918341
H           0.09636157156958   -1.76524349770805   -2.44593833599802
H          -1.40423354092315   -1.56114212635004   -2.04998949344623
N          -0.29770542128133    1.72783649799893    2.39911832705764
H          -0.71204965280369    2.29050006920808    3.13378827797787
H           0.09822165965441    2.26753405376339    1.55104060956723
H           0.47938128588077    1.09260882176163    2.71769716338085
H          -0.97632543796805    1.13205925286095    1.86494536784696
