    23
        -45.37048816  Gyration_radius:  2.44671558774 Dipole_moment: 5.469
 S           0.72781441343382    0.84168509772142    0.24589556285099
O          -0.63633179020745    0.26447210594426    0.17169275910799
O           0.57183551448435    2.27082530521391    0.83853649926607
O           1.57409345178766    0.05110829794033    1.11147297572206
O           1.26551078819628    1.03441372566458   -1.09412592952573
O           0.49689760924705   -2.05264241054539   -0.53052058239156
H          -0.01239938046296   -1.29331714888623   -0.18988719671053
H           1.38806960303120   -1.90434016446620   -0.20266061213477
O          -0.30600984386867   -0.63427520502362    2.83831562556278
H          -1.00877218361721   -0.65374282151211    2.18097131861833
H           0.51485089000718   -0.55573228137376    2.30798028756848
O          -0.40104808319988   -2.04867074453339   -3.03361969959681
H           0.06619811636174   -2.15938116712023   -2.17211118343923
H          -1.05313729769942   -2.75054810745405   -3.07034891618281
O          -0.04272707578383    1.94396256598296    3.34703768937909
H          -0.24246775231386    0.97411860855581    3.31922095463385
H           0.77319396848618    2.03201867414725    3.84461877764412
H           0.29588595574836    2.21351914366279    1.79782304784091
N          -0.83240214204629    0.49634128750694   -2.39057098618013
H          -0.75807804649004   -0.46154407035298   -2.81941099407664
H          -1.33471963916453    1.16056310489256   -2.96791448880900
H          -1.20629768463987    0.40905221149278   -1.41600448852380
H           0.16004061832036    0.82211398239853   -2.11639043066993
