    23
        -45.37048813  Gyration_radius:  2.44640880115 Dipole_moment: 5.472
 S          -0.16747184270225    0.07680391627889    1.12592952807897
O           0.53872556523603    0.84798179531693    2.27681840813218
O          -0.00271287634431   -1.33458688393216    1.44659691955312
O          -1.54619988193745    0.50267817083035    1.03573183897442
O           0.56894692165429    0.40809875430628   -0.11800773636757
O          -1.33156771552408   -0.89953993146542   -1.46831876573515
H          -2.03657234792623   -0.88277910506175   -0.81534825767100
H          -0.64263188420138   -0.32068572142921   -1.09100841800602
O          -1.10530824237539    2.67655691246604   -0.40187550152524
H          -1.49752502822871    1.90995435579403    0.06686648226465
H          -0.35750536058542    2.30253541677832   -0.87859236137171
O           0.21581697660712   -2.92580024443647   -2.22356700548215
H           0.33257817614166   -2.81727329884079   -3.16897305192359
H          -0.49703348587502   -2.29480930963844   -1.96558419437895
O          -0.04734183227022    3.35917416108552    1.91977734881027
H          -0.78755680542352    3.55381833633846    2.49875921440128
H           0.38341184631213    1.83019127193560    2.17313191684933
H          -0.42566861743094    3.28904713364115    1.00693993090617
N           1.73283918469208   -1.88719521567523   -0.30100524520185
H           1.62975032107518   -0.86033893522312   -0.48043227927225
H           1.29279455121615   -2.42233934838662   -1.09286459080886
H           2.68144718258386   -2.17742753916830   -0.09423395309237
H           1.06878518536894   -1.93406466206642    0.54925977284460
