    23
        -45.37048802  Gyration_radius:  2.44648870323 Dipole_moment: 5.466
 S           0.80068570747507   -0.77946929453135    0.22831418800963
O          -0.17340119590755   -0.12048724108203   -0.67552772444531
O           1.88241804556693    0.13887399197236    0.55727428979097
O           0.13344394740489   -1.33981853648698    1.38200996891515
O           1.46309961687187   -1.92154169703065   -0.59340667312491
O          -1.00220379127559    1.30564210234009    1.42804071944058
H          -0.67937362834545    0.74828060078801    2.14132891079700
H          -0.84862875504559    0.77645331442949    0.62281515038962
O          -0.06680059777956    3.63814671938844    0.55833187341693
H          -0.84261757390368    4.15540839240807    0.33531946671070
H          -0.39998649284209    2.84986760111053    1.04865537399334
O          -2.09573658210200   -2.03519520298507    0.14306796075842
H          -1.40112829800330   -1.81705572054406    0.79964923748253
H          -2.07003158465412   -1.30047128413033   -0.47816352176058
O          -0.37006531945089   -3.74637952773421   -0.89099578554701
H           0.79385568893399   -2.64143091476355   -0.77562849564286
H          -0.21583276236136   -4.40793653348965   -0.21307546833719
H          -1.14902145976400   -3.21693118524584   -0.58406435277771
N           1.26555550841111    1.98773367551238   -1.04709673842216
H           1.78972821914368    1.36820644746716   -0.33507422071918
H           0.82480971583878    2.78827780020923   -0.52571205903518
H           1.83643559025718    2.28059034088338   -1.83139662885918
H           0.52479599133923    1.28923614115951   -1.29466547106924
