    23
        -45.37187215  Gyration_radius:  2.45114581964 Dipole_moment: 5.601
 S          -0.12660759183735   -0.92058134843662    0.41371669944835
O          -0.47303679497476   -1.97140509424674    1.50129237833452
O          -0.99762862158387   -1.23001095783660   -0.72151105940723
O          -0.45538142947234    0.40776770036378    0.96309178012542
O           1.28277370101807   -1.02094098401021    0.08961136996529
O           2.08297226721648    0.56478133520205    2.04414281210996
H           1.26740682240450    1.07796813703712    2.01673526920818
H           2.02643210192080    0.01415242942575    1.23658457101773
O          -0.62704713774886    2.06154575224789   -2.74708203018915
H          -0.00550124061871    1.29147353747371   -2.67921074560747
H          -0.85115645073001    2.13530849996702   -3.67625455479158
O           0.71515275224529   -0.19695254231524   -2.48853212565170
H           0.04520519886423   -0.73620043636968   -2.02731741434995
H           1.47993070963359   -0.26834520884032   -1.90628930630474
O           1.29099598641132   -1.57596307639668    3.37053059754511
H           1.98360505950286   -2.22885556854101    3.24754216218760
H           1.66175570223414   -0.71787237281621    3.03945523385476
H           0.14405906208737   -1.84805339660592    2.27803732068062
N          -2.13872223732997    1.06775078869182   -0.80490838260411
H          -2.05716992264678    0.04456347135667   -1.01678377870114
H          -3.08374127336151    1.37726105838464   -0.60949447661206
H          -1.49327599515729    1.06665969147895    0.05761329881972
H          -1.67102067807871    1.60594860478914   -1.58096960908162
