    23
        -45.37036742  Gyration_radius:  2.38070785953 Dipole_moment: 6.231
 S           0.80343811058875   -0.18300353247746   -0.64369314998471
O           0.48353752268514    0.16634574551310   -2.09729787026173
O           0.53806101842353    0.98821979381245    0.19689298448969
O          -0.05117183287114   -1.30678248381609   -0.22073113750418
O           2.20965446842858   -0.56951914193982   -0.57596442204640
O          -1.28653250039156    2.81972599416426   -0.41531726701409
H          -0.62933206034839    2.17137143400178   -0.08387690175075
H          -0.78079293743640    3.56039033659842   -0.75390902914459
O          -2.64065874444555   -1.16094868361312   -0.74583245082344
H          -2.82901601074547   -1.95506758838714   -1.24883656818186
H          -1.70237206721260   -1.23385017880339   -0.46376889654590
O           1.23425575630261    0.46639639145522    2.66754759303130
H           0.88068256399200    0.73149184737997    1.78090562806326
H           1.86734275006305    1.14542539116120    2.90702078091834
O          -1.90692383188040    0.94538571109562   -2.22056025775546
H          -0.50250386573569    0.48617126017676   -2.20180849252294
H          -2.36882698726109    0.23838764809340   -1.71775188284559
H          -1.87578298509667    1.72056708611808   -1.61766634926979
N           1.73663852040616   -1.85477043120318    1.53821813018171
H           2.13805141788782   -2.70615309639980    1.91499492723028
H           2.24934246798548   -1.41990829786041    0.69249384468749
H           0.80417672769447   -1.97592306489506    1.07268707375934
H           1.62873246896604   -1.07395215017203    2.23625372328954
