    23
        -45.37187217  Gyration_radius:  2.45116895936 Dipole_moment: 5.599
 S          -0.39648139735131    0.86210295740486   -0.36566707282630
O          -0.74903903297782    1.94920948625090   -1.41491437886186
O           0.25997152188161   -0.24661275805952   -1.08272596985595
O           0.48345793231454    1.43540760161747    0.63353853940136
O          -1.67822673569539    0.42073624396476    0.18686468894567
O          -0.58156436626717   -0.28971409688373    2.51407047187181
H          -1.17408006542346    0.03412457344693    1.80961205853609
H           0.19822657081250    0.26626427177015    2.40516804954521
O          -0.54673784434018   -2.86249090650169    1.92331929599359
H          -0.44314008731955   -1.92338440994422    2.22532985558294
H          -1.05960323248284   -3.30084432388890    2.60439310056814
O           2.70011970014865    1.00220941202527   -0.73539397194923
H           2.33469833871668    0.21519594008091   -1.15542378597175
H           2.04509422974547    1.20579561478798   -0.03687319030721
O           1.55163258974029    2.91181378413523   -2.15092181676213
H           2.13466280866147    2.22962104553669   -1.72900498051943
H           0.09851255802255    2.33643960977690   -1.77684953281228
H           1.69072109623347    3.72213269661518   -1.65582448548497
N          -1.39903908992590   -2.04889033497832   -0.45510247406091
H          -1.87386808371932   -2.64766330191712   -1.12071153891237
H          -0.55824870920671   -1.51761328538899   -0.86917428891683
H          -1.94781011779603   -1.20222904077913   -0.17147157243605
H          -1.08925855376997   -2.55161077910014    0.41776299923127
