    23
        -45.37187211  Gyration_radius:  2.45131851508 Dipole_moment: 5.595
 S          -0.31817815661774    0.77556794027921    0.57563141410007
O          -0.99475142296353    2.13012830991286    0.91346218729755
O          -1.04235273178150   -0.29334221575251    1.23461077411319
O          -0.35187864964972    0.61927309985551   -0.89015085479427
O           1.06411135206813    0.90114918296057    1.04094163997505
O           2.65766009499251   -2.11421344086061   -0.81391335722443
H           3.49590537268378   -2.50378324191960   -0.55984773607080
H           2.10432155126713   -2.10330018264855    0.00917092927645
O           1.31471187923077   -1.72772761761132    1.42567479915814
H           1.36971451591606   -0.75526064208408    1.48615588453773
H           0.36613670066936   -1.88886498986908    1.48265618824128
O          -2.83556595916128   -0.57466242654567   -0.68409731162001
H          -2.26828690724226   -0.69513761853101    0.10470446417810
H          -2.20898388545425   -0.30350362122011   -1.36460050063108
O          -3.50558669760135    1.76203753697188    0.34507746049007
H          -1.96435368282525    2.07497866681984    0.67681973074028
H          -3.41950793514076    0.89810939487664   -0.13401761117922
H          -3.95670068954487    1.56460324924404    1.16884548032263
N           2.14651507864327    0.45477891219406   -1.24342833196752
H           2.13400708914031    0.80465938787457   -0.25552683012530
H           1.08108574735364    0.48976846816857   -1.39967050575471
H           2.67422362330849    1.03675662368264   -1.88358153165386
H           2.45775370269851   -0.55201477580092   -1.23491638141816
