    23
        -45.38152959  Gyration_radius:  2.234025478 Dipole_moment: 5.498
 S          -0.86656034911421    1.21869404294611    0.11258839479007
O          -1.70316120771278    1.52042135017134    1.24317403116661
O          -0.95304128915309    2.38571869368993   -0.90551379851129
O           0.54074724153611    1.03906779857542    0.48099115932505
O          -1.33508972680914    0.00125708529797   -0.59234104330600
O           1.67229007432213   -1.33238286924431    0.04921974371046
H           1.53257549771061   -1.39502099732605   -0.90592881165407
H           1.44128045792676   -0.40281095030068    0.26626172725009
O           0.40162426611338   -0.74791359242977   -2.38211179422614
H          -0.31034248865089   -0.47687391119990   -1.74719561263620
H          -0.04226771664333   -1.00060799599796   -3.19279361109231
O          -0.49922360007556    0.07030788408732    3.04456979734253
H           0.38633540227412    0.43965942009370    2.98511190795561
H          -1.05932905947913    0.69287397561870    2.52027391203840
O           1.34609716149861    1.79584475594316   -1.96824352297980
H           1.54937355640765    1.64208976661132   -1.03311522443260
H           1.18635060926166    0.91043902990897   -2.34187543208924
H          -0.13041350047475    2.31597795847778   -1.45798847569483
N          -0.64756236295797   -1.77960645329055    1.17798075092288
H          -1.11714300306295   -2.66557128623822    1.32779188005819
H          -0.60613004900141   -1.18217579996587    2.05815051260223
H           0.34244055656394   -1.87710234464687    0.80670780814027
H          -1.12885046046588   -1.17228557079885    0.45428570131886
