    23
        -45.37824529  Gyration_radius:  2.3911241221 Dipole_moment: 5.932
 S           0.36466344035325    0.14177540924919   -0.86984577445819
O           1.17689140755713    1.03324580836280   -1.83822788987238
O           0.42319526568975    0.78198363187494    0.46377764584881
O          -1.01644908401329    0.08882192530905   -1.33530043916383
O           0.98307298308875   -1.16670292117507   -0.82019816234641
O           2.04820646872875   -2.37068499544567    1.25472282932029
H           2.32161402214969   -3.24656115757928    0.97778271096055
H           1.81638973924222   -1.88437188211436    0.42787578869413
O          -0.40137164161308    3.30186523371957    0.33091137127198
H          -0.12170999125974    2.37089622879378    0.46523613593719
H           0.37195117709222    3.83962891544607    0.51037341102464
O          -1.68566253623234   -2.09714661446446   -0.08230421088154
H          -1.14052015269542   -2.72501262360444   -0.56358571947096
H          -1.59558755865752   -1.25834390148738   -0.59885304499638
O          -0.79640872798283    2.61696018327222   -2.24455931454343
H          -1.32130796536968    1.81373726204443   -2.10382230499688
H          -0.79896248358802    3.08090817701143   -1.38121229555447
H           0.52852071124121    1.74747931318332   -2.12343115446878
N          -0.24569924085025   -1.22291960923929    1.95021636204451
H           0.62787054656667   -1.79635871493287    1.95765275807294
H           0.02885307099897   -0.30255562184097    1.47636149204738
H          -0.93190682980992   -1.66580318550047    1.27106688134119
H          -0.63564261063221   -1.08084086086855    2.87536292418546
