    23
        -45.37168534  Gyration_radius:  2.27525377536 Dipole_moment: 6.334
 S           0.58730281563669   -0.94078970620267   -0.53561358652970
O          -0.22560481574821   -0.92134733503265    0.68249506022999
O          -0.21087968890062   -1.69413340956324   -1.62037732911821
O           0.85480987426986    0.41686142894861   -1.00823396954312
O           1.85476363221736   -1.62985018002268   -0.30698479773801
O           0.62144652436191    1.27131244976080    1.78280215493145
H           0.19549315060109    0.40858330388424    1.55780462561412
H           0.11536747693883    1.90768969869680    1.25982220196767
O          -2.77803161140637   -1.71190377003306    0.68736180924866
H          -2.75454490213280   -2.66259564125898    0.56653695150299
H          -1.85164296564854   -1.43695481141022    0.84367992029037
O          -1.06812746539311    2.05319118486806   -0.50577468034137
H          -1.09540289707624    2.72281115076622   -1.19127957507961
H          -0.31009443539723    1.45644323036119   -0.73304282453957
O          -2.32854753320077   -0.24542343570669   -1.52158048817135
H          -2.04892657522732    0.60606800690108   -1.13863126573385
H          -1.06901324780734   -1.15873561564072   -1.71388466552559
H          -2.74942628199152   -0.73088291948718   -0.78118809124821
N           2.88992065012222    0.46979296959698    0.75200483926336
H           3.14529955917135    1.05418062068911   -0.04030346850424
H           2.56429374564600   -0.48799645366903    0.33939926658545
H           3.65864873263180    0.36501588222180    1.40778850025978
H           2.00289626832462    0.88866335133075    1.21719942218321
