    23
        -45.37182614  Gyration_radius:  2.39993481711 Dipole_moment: 5.908
 S           0.49254021556131   -0.15306705108847   -0.75155436430693
O           0.11018194456384    0.82665064025245   -1.73567020196596
O           1.31098698175360    0.45551621291232    0.33420147902490
O          -0.79551936339371   -0.66811530991938   -0.01546479050185
O           1.13373915575959   -1.33727438501543   -1.27131728797150
O          -2.40301647278534    1.57480409355057   -2.19099873268554
H          -2.80204925358229    0.92390359643786   -2.76975473204580
H          -1.45019873334590    1.34901697928652   -2.14638999027298
O           1.98780621791477   -3.16860350971858    0.33638553968068
H           2.92500606641214   -3.24975654889979    0.14969910931450
H           1.62663052176352   -2.57585648395128   -0.37840241169282
O           0.07596017067054    2.82807537761164    0.29755913586121
H           0.65900972002357    2.04918249669675    0.36862603679648
H           0.05550756117436    3.03172561035660   -0.64195674180050
O          -2.16392723493769    1.39338077308357    0.47991659511001
H          -2.52694286439880    1.55864845588415   -0.41402884881388
H          -1.39359174177565    0.14323959968240    0.20280637631272
H          -1.43981245302050    2.05545752731639    0.57679804122128
N           0.92150872187162   -1.42036038617732    1.96494109851473
H           1.18830221157744   -0.53283935466687    1.35208746396094
H           1.14996384366007   -1.32122013815162    2.94865402005232
H          -0.08250145113358   -1.53037149628630    1.81076682968601
H           1.42041627566757   -2.23213671919606    1.49309638652137
