    23
        -45.37182631  Gyration_radius:  2.39884453893 Dipole_moment: 5.920
 S          -0.65872518667245    0.60113650134464   -0.20434937968142
O           0.40366155285627    0.56570571592818   -1.24798196106610
O          -0.50325215702592    1.73718524411813    0.66730677386359
O          -1.96480177585580    0.45013265546057   -0.80004302975631
O          -0.42518714411721   -0.71340259518818    0.62237122234283
O           0.06257857761831    1.54854631806503    3.26112421757290
H          -0.19062773879016    1.74269195873815    2.33427084461399
H          -0.75565949539212    1.37196452608643    3.72711505940424
O          -2.41365811992352   -1.47269084880193   -2.46384250489433
H          -2.38237708538999   -0.75164459733941   -1.77675347952498
H          -2.70812222659787   -1.04324858184641   -3.26923039339909
O           2.32168440032467    1.61819355827358    0.29139413829675
H           1.70916119585432    1.30112423527701   -0.39847909626001
H           1.87405154366055    2.37201467306978    0.68632833998936
O           1.61732053342946   -0.27031140915235    2.03668337650708
H           1.21057226756834    0.29620161958955    2.72354147363793
H           0.40063357255157   -0.57736645922349    1.22479832396829
H           2.09481077487193    0.36106756507573    1.44883613837301
N           0.08443381154499   -1.86924784273461   -1.79498993676406
H           0.02496606626986   -2.22162291261396   -0.83794852056011
H           0.32776814238698   -0.79239178165796   -1.66804558223594
H           0.76431780835889   -2.37882571090545   -2.34978538245797
H          -0.89354933753214   -1.87521184156305   -2.21232062196776
