    23
        -45.37202091  Gyration_radius:  2.35759180982 Dipole_moment: 5.557
 S          -0.60012562701158    0.84984914971929   -0.31438546901993
O          -1.18360193698521    1.36667049291219    0.89635527017756
O          -1.35538404258027    1.10629503774777   -1.53171939569456
O           0.81025904003561    1.25087229164946   -0.48022717791073
O          -0.56668534736510   -0.72334560097834   -0.20857551762155
O           1.43355455498850    1.14622533386967    2.10958314032881
H           1.34312161621604    1.27390109532610    1.14532151626214
H           0.70857230414098    1.64821406067770    2.49256043375650
O           0.62008308592334   -2.08792127816730   -2.22243063897873
H           0.05812782262910   -1.75823552366370   -1.49316732020883
H           1.30337404909899   -2.62085917337513   -1.81136950538520
O          -1.91516385788625   -0.15324766116167    2.96121441157005
H          -1.71955748492946    0.49971343684862    2.25715983020691
H          -2.81267900797615   -0.44970713808711    2.80465444008548
O           0.35201369733764   -1.28035269108442    2.06479790715124
H           0.93088715907031   -0.49273969560035    2.20347573545853
H          -0.44714052620126   -1.09033515600088    2.59795506349097
H          -0.18143457321777   -0.99859263850382    0.71751527548577
N           0.67478551422714    0.49854085712525   -2.89937903636211
H           1.10869728365515    0.87047458561514   -2.00405892709699
H           1.00029151888286    0.94882034224159   -3.74732287864196
H           0.77896269606628   -0.53912274044725   -2.90952352461481
H          -0.34095792811893    0.73488261333731   -2.62843364243769
