    23
        -45.37118590  Gyration_radius:  2.48004136137 Dipole_moment: 5.858
 S          -0.22096959612638    0.74676442822502   -0.77997307571437
O          -0.13013406539250    1.84323087881016   -1.70586776355536
O          -0.11774658847131    1.31771869003131    0.67969364453147
O          -1.50292988933908    0.03814726424332   -0.79798811974501
O           0.89017679878028   -0.21209391146417   -0.92509876064191
O           2.50873780946383    1.81157596369969   -1.82133401993211
H           2.50150799121820    0.87370013932914   -1.59456227900954
H           1.57466810318125    1.98458368081030   -2.05298127780722
O          -1.01497694195466   -2.79084915368600    1.91936729671285
H          -1.69592572990473   -3.37855462902437    2.25025608574090
H          -1.38356660148566   -1.87171328768274    1.99943452893111
O          -2.03187815470765   -0.36455610482770    1.79072302632367
H          -1.98593656695815   -0.16261389193103    0.83274012553718
H          -1.48665622954235    0.31675090028852    2.19396979118997
O           1.92914212638394    2.89875249446870    0.51165162756281
H           2.33006635942826    2.54014305038152   -0.32219568203467
H           1.58329547822449    3.76401438994536    0.28135743122023
H           0.68081042299861    1.91800135505236    0.69732293462435
N          -0.48495403423743   -2.31365100345276   -0.63859922659345
H          -0.59782445753657   -2.66533124529499    0.34767639678889
H          -1.24268881225061   -1.61325411202223   -0.82981122863664
H           0.33650999544309   -1.62105458739999   -0.71253394430703
H          -0.43872739721091   -3.05971130850763   -1.32324752117783
