    23
        -45.37156697  Gyration_radius:  2.50093901611 Dipole_moment: 5.865
 S          -0.86389603268822    0.19149192725332    0.60205027310004
O          -0.76105770081019   -0.98756638935580   -0.27789377617263
O          -0.91769148653597    1.41975766449725   -0.19394195437022
O          -1.92426366440231    0.07552045526441    1.56493118598462
O           0.50618985692903    0.26843246727137    1.36843107544207
O           1.64170004743533    2.15649711087580   -0.35501034863600
H           0.67425008770977    2.03631677021163   -0.25249787930627
H           2.01066931693153    1.72053954198690    0.41812025927301
O           2.10537690486383    1.00385216580652   -2.67783947595374
H           2.44811726189278    1.67293572003575   -3.27234874285427
H           2.05901883697964    1.43134793439013   -1.78243348495002
O          -1.80831354687288   -1.98582178326922    3.21500285077938
H          -1.86314405581856   -1.61357216266764    4.09675735715878
H          -1.99275136580125   -1.24260754845048    2.59859100951081
O           0.45611167707185   -2.25358101769605    1.81641080382069
H           0.04413678492638   -2.29478841207349    0.94163995802672
H           0.64420098621341   -0.67680102264371    1.67170594971316
H          -0.28888753372266   -2.34543097268562    2.45000890563921
N          -0.43656768545370    0.28031697886097   -2.44549809174660
H          -0.76807530392133    1.05593092614813   -1.82144709588320
H          -0.50285101564091   -0.50294105432568   -1.71222602464789
H          -1.03106868865729    0.12313230628348   -3.25135506533726
H           0.56879632937105    0.46703837428513   -2.70115768858517
