    23
        -45.37118592  Gyration_radius:  2.48000776338 Dipole_moment: 5.856
 S          -1.09474616944243   -0.11209017358238   -0.06543585238771
O          -0.49173322167892   -0.27750977125134    1.37550261211789
O          -0.71514356306001   -1.34652049821921   -0.75686348899755
O          -2.51264318285960    0.09486388428753    0.05460580842311
O          -0.40200598572335    1.04096067787247   -0.67018056308602
O           3.23611532343815   -1.22577690156609   -0.72694881495252
H           3.82369265126674   -1.93169982652145   -1.00077724918515
H           2.59518946044211   -1.63535592202281   -0.08775766168872
O          -2.32619252279876    2.71477251970937    0.33631690260596
H          -2.69679018988066    1.82808260646277    0.15607843720922
H          -1.49580433806780    2.70207851375559   -0.15510705734341
O           1.30615950230335   -2.29181780348812    0.71421094794776
H           1.14335012517923   -1.84696350356925    1.55065133837939
H           0.50622462879110   -2.09136454594327    0.18449857274990
O          -1.55618877300416    1.71130862034662    2.65173577327127
H          -2.36914352404075    1.37920613783755    3.03928951681150
H          -0.83783642986051    0.48484402930404    1.92077480384116
H          -1.83516650161104    2.25971198095159    1.87317942617801
N           1.18210919591545   -0.28745770157704   -2.12471104647888
H           1.25304993632561   -0.09963816428428   -3.11828790995641
H           2.10314652080792   -0.55281556896648   -1.68843699182230
H           0.70799450301137    0.50953637026699   -1.57698250605710
H           0.47636255453854   -1.02635497979811   -1.88535497757327
