    23
        -45.37182631  Gyration_radius:  2.39883132669 Dipole_moment: 5.917
 S           0.05357582991485    0.17272857818439   -0.89967955191031
O          -0.48451643039624   -0.50236250338652   -2.05649256901073
O           1.26637994889293   -0.53069430849263   -0.39603508297738
O           0.29231468565083    1.58388249991723   -1.06116447553810
O          -1.00937451417954   -0.03948568683940    0.23643295464585
O           2.14751479971205    1.49954890439926    1.10627067057827
H           1.98809265215678    0.71503871173107    0.54874052401524
H           2.07811104779123    2.24503968525688    0.50295096762822
O          -0.92921383036140    3.47125446583094    0.36345990089531
H          -1.78388834850257    3.63470094453513   -0.03745996756908
H          -0.45247216779609    2.87381484682887   -0.25020523602903
O          -0.90502095147875   -3.04841475428569   -1.98275445227761
H          -0.39462179072340   -3.40763786044801   -2.71096884488967
H          -0.86592710003319   -2.05908321988876   -2.09579134504877
O          -0.32509932770023    1.51406972095756    2.10440004536362
H          -0.77452502694256    0.58352524423259    1.02334145062828
H           0.65018895327902    1.52919625236703    1.96109128515206
H          -0.63991217782222    2.36040529422489    1.72677018798876
N           0.02092424586339   -2.56073169446695    0.41514066130331
H           0.69740339812080   -1.73801037257694    0.09756545190545
H          -0.34432477827052   -2.97276810063437   -0.49455878636895
H           0.46559293599656   -3.24416857971726    1.01913080265739
H          -0.75120204319294   -2.07984806772919    0.87981540887090
