    23
        -45.37156695  Gyration_radius:  2.50090212268 Dipole_moment: 5.866
 S          -0.68854366971382   -0.07971438824151    0.81570933382961
O          -1.18374909412879    0.80822961200885   -0.38288926596193
O           0.72987880528120    0.27333835087274    1.01204483736742
O          -1.49765283524791    0.20892179690287    1.96770073803786
O          -0.81005701803449   -1.45831781907102    0.33634136928799
O          -1.53821322864548    2.72031453718753    2.78955771596934
H          -2.46460713463134    2.96397797829981    2.82798278279840
H          -1.52278594404930    1.75162376985872    2.62275990726535
O          -0.83798702637677   -1.18208423739636   -2.31753917644886
H          -0.95600704418037   -1.37497498507028   -1.36377051580223
H          -1.14193129728031   -0.27469765353293   -2.40804723980272
O           1.74276398824765   -1.58825329663122   -2.65540912719935
H           1.84577944481185   -2.30432808659153   -3.28407462366452
H           0.77316809042914   -1.37301780682303   -2.64234059326805
O          -0.01707048571647    2.86911260398302    0.59438212505024
H          -0.83533819767779    1.71718781406703   -0.14428028555357
H          -0.54539004732080    3.05349035467341    1.40173262820022
H           0.65064025718350    2.22774844004390    0.87631649672651
N           1.70838229076146   -1.82509197875756   -0.01312806873597
H           1.91120115633720   -1.75874347602252   -1.04530803746300
H           2.37099847555416   -2.40611907003380    0.48776641088264
H           1.59685383702800   -0.84575862220373    0.41573131007068
H           0.70966666736956   -2.12284382752600    0.10876128841171
