    23
        -45.37118598  Gyration_radius:  2.48003306852 Dipole_moment: 5.856
 S           0.83331357161076    0.04795126829154   -0.72016901618656
O           1.79914021130358   -0.27276216061369   -1.73599617047203
O           0.82879333984195   -0.92672334625683    0.38663935917123
O           0.93454322425266    1.41012637173001   -0.19085613243081
O          -0.60021167866186   -0.01037333676241   -1.35970324869725
O           1.67026489776831   -2.88175206755892   -1.34318595026446
H           1.40021546764919   -2.72604149425926   -0.43000704761831
H           1.99433744101877   -2.00325476208289   -1.62503953859995
O          -1.61107604674734    2.20740233864499   -0.02327265175992
H          -0.65261287355225    2.05281213132000   -0.15771904258696
H          -2.02865693779038    1.60823360492050   -0.64831929885315
O          -1.95349605629666    1.55260980252948    2.50487766654677
H          -1.95339549791938    1.79518960158758    1.54140462845046
H          -2.24885279704698    2.33433176368977    2.97415018997484
O          -0.54463753445024   -2.26466183538065   -2.63727698766717
H          -0.66223833669992   -0.88048473823098   -1.84689788477894
H          -0.24262197166517   -2.06372709214869   -3.52599700651987
H           0.23090462169007   -2.68039508167483   -2.17858206410008
N           0.56551296006600    0.74738221634883    2.26211490790007
H           0.59808248713282   -0.16587709444707    1.69198931811554
H           1.20495821191319    0.74808870170210    3.04862096604316
H           0.86023261594226    1.38134865108293    1.47952931418672
H          -0.42249931935709    0.99057652758579    2.53369570015494
