    23
        -45.36874997  Gyration_radius:  2.38816688508 Dipole_moment: 8.655
 S          -0.66263040252148   -0.17269402345787    0.98417580529967
O          -1.19020541414817   -0.77101334903730   -0.37936369130821
O           0.72453396014541    0.22172327222751    0.72308441665200
O          -1.50096974691215    0.92037675792608    1.37725364319517
O          -0.71030253292611   -1.33236924726575    1.88549092266825
O           2.37039377953401   -1.64304104437230    0.02569391309558
H           3.07512115635713   -1.62428837254987    0.67579926933130
H           1.79535066677274   -0.85654655201962    0.23495202663713
O          -1.21271843058671    3.08083183588306   -0.18115809698877
H          -1.43800256892582    2.45740999779339    0.53563029753173
H          -0.24882012127038    3.21658971898335   -0.09412120342162
O           1.46728210853716    2.68036430600481   -0.05824254983928
H           1.78062131812112    2.50152023376183   -0.94697192988153
H           1.24796989798172    1.80917307977446    0.32757981893500
O          -1.41067825363748    1.22929049814593   -1.97288119933494
H          -2.30805679982368    1.26915506901215   -2.30910582002977
H          -1.32210171760847    2.01900527973967   -1.35158130202762
H          -1.26409899687700   -0.00008373289009   -1.02277961945360
N           0.16707637415738   -3.05307158112594    0.29530072903853
H          -0.25190676261109   -2.36494905160333    1.09014718599466
H          -0.40324719253933   -2.87050471969051   -0.52828808754500
H           1.14522055623938   -2.68459950096731    0.13016076500830
H           0.15016913254430   -4.03227889426862    0.55922469644797
