    23
        -45.36874999  Gyration_radius:  2.38830656266 Dipole_moment: 8.650
 S          -1.05096676002819   -0.22469502838354   -0.52945276683056
O           0.30807648170136    0.06559070401410   -0.99476557827691
O          -1.94434364193271    0.88846998953406   -0.65127513624353
O          -1.54698904130219   -1.47273515235398   -1.12601445119977
O          -0.89732302932947   -0.60607059676977    0.99591372792671
O          -0.89701222064734    3.18013355984600    0.26014256527557
H          -1.45064093816588    2.50080615225440   -0.17021496225998
H          -0.08532521013284    3.21443153275251   -0.28295067378189
O           1.39243321460107    2.52128901567318   -1.03749251425020
H           0.99466227770053    1.63375274936964   -1.13775682363490
H           2.09021762648068    2.42348143456773   -0.38676249998646
O           2.03526526965563   -1.85130715517967   -0.86136839786037
H           2.35507862889051   -1.97545463577828   -1.75687777574486
H           1.45205649597292   -1.04425744200764   -0.89751796285014
O          -0.28352483828190    1.57937737245648    2.19397845967744
H          -0.91707011286542    1.74427428826216    2.89499730069469
H          -0.63679680645176    0.23850532322851    1.47817191108276
H          -0.47328102409994    2.27834814735442    1.49203254730984
N          -0.07879395469469   -3.06918324284400    0.12077812422538
H           0.87346646946963   -2.77813254992310   -0.23683281204498
H          -0.24532154006452   -4.06665842361992    0.04311154115934
H          -0.19354501518387   -2.73693073472514    1.07648414524060
H          -0.80032234129173   -2.44303532773029   -0.48632794762951
