    23
        -45.36875006  Gyration_radius:  2.38827368562 Dipole_moment: 8.650
 S           0.91107554154947   -0.62353628574523   -0.46604356652196
O           0.35105736791902    0.71450432689980   -0.67542355882210
O           0.98521718537864   -1.35841753966620   -1.73646911969566
O           2.12776404803744   -0.61957359864016    0.29012363613531
O          -0.19636313769225   -1.41941612362741    0.33129173826762
O           0.78063151540858    2.79907052991808    0.96127352003628
H          -0.10191603534781    2.94338407446849    1.30796336995481
H           0.69140068521295    2.09509845623588    0.28866817208031
O          -1.83438994931562    0.87790448900362   -2.04381941735690
H          -1.02542454966933    0.90264748187785   -1.46267774870674
H          -1.63513929701181    1.45491568924871   -2.78340325768877
O           1.99485575687900    0.91150223119014    2.48509382148281
H           1.73634876338995    1.76011224044907    2.07521475083853
H           2.28981609284938    0.35823679900262    1.73671870594627
O          -0.23162443892429   -0.38575986114505    2.68050507042090
H          -0.23659354836846   -1.01210439045330    1.25120329983380
H          -0.08842500121534   -1.07569096684340    3.33127040570747
H           0.60965300010355    0.17053694979284    2.69093544278042
N          -1.46586387862107   -1.72597574821409   -2.07643817472422
H          -1.79962898232560   -0.72776036347988   -2.18394419324476
H          -1.78113985952319   -2.33391322934358   -2.82461331612087
H          -0.33946179582081   -1.63129271645062   -2.01712261105547
H          -1.74184947289458   -2.07447245447750   -1.16030692954652
