    23
        -45.36875015  Gyration_radius:  2.38799276969 Dipole_moment: 8.652
 S           0.70078534128217    0.96271541566229   -0.14003662009597
O           0.94320898014930    1.77303550407629   -1.34177533937623
O           1.28976847352445   -0.44560828529666   -0.54641008241673
O           1.36715460552725    1.43241049206353    1.03786396073240
O          -0.73513323726479    0.74143369707299    0.05230231397166
O           0.71732912345374    0.04406312295097    3.23533485101745
H          -0.25379617082959    0.15166824079634    3.21367784050671
H           1.05130280780252    0.70932488947103    2.60359459536551
O          -2.08392132392003   -0.08858836134350   -1.98881839261386
H          -1.63408775083790    0.17708614776747   -1.14033324144600
H          -2.77248206974796    0.56420758809084   -2.12798199448211
O          -1.86635089710048    0.16911874260222    2.41883960840121
H          -2.17267187464248   -0.72619619910183    2.26198704043659
H          -1.50623139669181    0.48137242329554    1.56516094953646
O           1.16148189388957   -1.88507457809551    1.57464174550197
H           0.96448122698133   -1.20472021948932    2.29289494583576
H           1.22876678516046   -1.02966267276315    0.27159109134892
H           2.03426004959437   -2.22611569515921    1.77938324855384
N           0.31539645082661    0.06208984770940   -3.05554259333825
H          -0.71045672652208   -0.06966067259422   -2.83263853883897
H           0.83647054069327   -0.74811313067006   -2.72537167141076
H           0.48837176610438    0.25044346336724   -4.03705179047389
H           0.63635339257320    0.90477024958764   -2.37131193671693
