    23
        -45.37719472  Gyration_radius:  2.33894855699 Dipole_moment: 4.175
 S           0.13662899980500    0.40489510791098    1.06565670665630
O           0.14530832896730   -0.01487895280496    2.55513122166096
O          -0.71692270085923   -0.52863796357677    0.32555571743632
O          -0.40642186884824    1.75551198179617    1.02130722054911
O           1.50999960536170    0.34473211965384    0.56203544245950
O           1.18643135845298    0.71578488701947   -2.01248150334425
H           1.08480960698587   -0.18991389710852   -2.31546719234701
H           1.43598154636793    0.64893531912371   -1.05886768017010
O          -2.74927797567944    0.13171765401844   -1.18678206232470
H          -2.02666376231703   -0.23757804807864   -0.62181826391836
H          -3.52240028339124    0.17373993449383   -0.62161248796117
O           1.32254617603038   -2.20841632858618   -0.09342728684206
H           1.71686948918479   -1.32571031320795    0.04023124426871
H           0.37570776642022   -2.00362667774673   -0.14469698955068
O           1.31711752846281   -2.34668396890118    2.55458399252106
H           0.54189324654157   -0.92659986954603    2.61746910322654
H           1.34965539040338   -2.51472343790731    1.58069215755737
H           2.22545485088536   -2.22555261797359    2.83952258879258
N          -0.99964124938419    2.10279364899799   -1.45148062844304
H          -1.16106585630560    3.02988211497753   -1.82839571324069
H          -1.82773844517610    1.46582393098755   -1.54854955870730
H          -0.15918471350695    1.63383164550512   -1.88151132824653
H          -0.77908702835292    2.11467374093596   -0.39709468006004
