    23
        -45.37202093  Gyration_radius:  2.35702095316 Dipole_moment: 5.563
 S          -0.98071986589312   -0.30576715637692    0.35892676812064
O           0.12505894789833    0.81484487199342    0.45353253489278
O          -0.24112687723276   -1.54719583954009    0.06071030020471
O          -1.55037006281900   -0.35371821836722    1.69731434637173
O          -1.89655160715460    0.05843939076000   -0.69087767308229
O          -1.59819997608561    2.20968185324168   -2.23754997108184
H          -2.00301514098502    2.95254724264106   -1.78776058021272
H          -1.83222103575699    1.41589932926601   -1.71278219303685
O           2.15533965798066    0.42704297062818    2.20051241874454
H           2.96020184020430    0.47880746080423    1.68142185291759
H           1.44103684433481    0.76979392195684    1.62739911724333
O          -0.03176907136919   -1.12033114307842   -2.56243854312712
H          -0.93978077548359   -0.89574905118197   -2.78434796848644
H          -0.07103840860137   -1.43332877032083   -1.63792224070827
O           0.89685085162728    1.27755460667285   -1.89408670771663
H           0.48145898543001    1.03020306724806   -0.49974943232274
H           0.74178012955743    0.38844337903372   -2.29423970471392
H           0.13544518422082    1.81488307296257   -2.19528742911449
N           0.47330427320249   -1.63102478316971    2.49379550813685
H           1.27036964827375   -0.96793138327929    2.60744455207215
H           0.41571043401399   -1.91411264846100    1.47172137341345
H           0.49114864572208   -2.40517582827854    3.14810607450895
H          -0.44291263108448   -1.06380635515035    2.49615761697719
