    23
        -45.36638233  Gyration_radius:  2.3755398363 Dipole_moment: 7.417
 S           0.98566883707075   -0.39212638928055   -0.51834328208513
O           0.61888232805775    0.98834972762641   -1.07107078092709
O           2.35615911874221   -0.66238844759906   -1.14232663028755
O           1.12496781034755   -0.28156789093681    0.92152429811115
O           0.04206060686464   -1.37750330632993   -0.94909331093871
O          -2.19129651180012   -2.15111437175517    0.54303827157095
H          -2.07939454044165   -1.47046376038477    1.22034567237823
H          -1.33297605411560   -2.20951955494323    0.09948001115973
O          -1.26431417038301    0.10415870738149    1.96349238097715
H          -1.20435133164612    0.37073161064834    2.88240850909710
H          -0.34717510350033   -0.08472126996320    1.66109813135088
O          -2.66414668534226   -0.69772113189261   -1.68114149444091
H          -1.82880607425026   -0.99984655143163   -2.05396601963584
H          -2.80424000825539   -1.28806697829871   -0.91088374993775
O          -1.73737941519457    1.38745709354282   -0.40620275709021
H          -2.21541257731329    0.69865229272710   -0.95170919957969
H          -1.75296163161268    1.05203063256081    0.50930181345809
H          -0.39527912341619    1.23353395408828   -0.82275096258110
N           3.42723353393134    1.24598045390841    0.18058134081212
H           4.37012378761739    1.32030014701872    0.53882698002962
H           3.15202587421208    2.13141736045238   -0.22337358014295
H           2.95142230684709    0.06224260416657   -0.72643718652761
H           2.78918902360269    1.02018507868808    0.93720156521591
