    23
        -45.36638229  Gyration_radius:  2.37540953398 Dipole_moment: 7.419
 S           0.69494852370087    0.03047164622305    0.95482734596519
O           1.44663954727666    0.27283188371624    2.26510559529618
O          -0.77454085874725    0.13546111442394    1.37385613911424
O           0.98051537998573    1.10984184470094    0.02848634404743
O           0.98611265068955   -1.27637578312768    0.45069485874007
O          -0.26807026876297    0.61714816210998   -2.23913420723389
H          -0.26476584413473    1.38539373374848   -2.81259363370984
H           0.26705207572844    0.85042109783650   -1.44701642490912
O          -1.05210231805888   -2.97007052058880   -0.68993274491600
H          -0.47540106791886   -2.88555436949068    0.07708729661782
H          -0.45016235750443   -2.83471787324717   -1.45201511136338
O           0.89409553432075   -1.95433180126988   -2.25947981143966
H           0.51665143269271   -1.11099893593994   -2.54378926710924
H           1.26010656460222   -1.78369987021457   -1.37987026400785
O          -2.10174229272670   -0.57789521628035   -0.59695126362376
H          -1.86493196271832   -1.54810899872706   -0.65218598690632
H          -1.41622447257977   -0.15996826677347    0.56713915774404
H          -1.62511307184202   -0.15076087949443   -1.33263132457002
N           0.62405486371276    2.69104487247064    2.38580380474002
H          -0.34815645773057    2.70339910146169    2.66419427554483
H           1.20557935179525    1.24229549464451    2.49847827559736
H           0.67375666658943    2.71189416082613    1.37208903433479
H           1.09169839164009    3.50227942300950    2.76783789204148
