    23
        -45.37141684  Gyration_radius:  2.27790963975 Dipole_moment: 7.139
 S          -0.94710489155551    0.12662835853414   -0.94049879494606
O          -1.82122818803801    1.25583800989327   -0.79624635143911
O           0.46881943179195    0.49357138616363   -0.87725185258171
O          -1.19132160471553   -0.87499991112566    0.26363601420678
O          -1.20914633827332   -0.72816528902595   -2.10005766701041
O          -0.72449521384238    2.33212994808494    1.40924044425115
H          -1.29155494858278    2.03282227368595    0.67146848458348
H           0.01721345819540    2.78823455440111    0.96392491628110
O           1.10395688240187    3.06807144830936   -0.44280424817559
H           0.63956615335431    3.55143883516019   -1.12865603120606
H           0.99731900275999    2.12243331231324   -0.66604569041844
O           1.69919979114269   -1.40954657678182    0.36042854540227
H           1.41994487838049   -1.23462825290549    1.26668090977651
H           1.44206404802626   -0.58721335040850   -0.12416776397500
O           0.06335876280340    0.06012976586392    2.33742212497390
H          -0.13310610605821    1.00695549952930    2.05250896190580
H          -0.39430090845471   -0.05355940348731    3.17262648765263
H          -0.75654572360347   -0.51978686687942    1.08410170318564
N           0.13502619966335   -2.72023962681923   -1.30709152567109
H           0.79201510112490   -2.29054336459886   -0.57624091620999
H          -0.45857479698230   -1.87007491615345   -1.72746139370492
H           0.66136883036851   -3.18892258909580   -2.03835190413623
H          -0.51247380991621   -3.36057324464840   -0.85716443275291
