    23
        -45.37141688  Gyration_radius:  2.27795878413 Dipole_moment: 7.138
 S           1.33173894713151    0.02575658635216    0.15299404347478
O           0.41392638919942    0.63825435954615   -0.80933431711409
O           2.35084504157626   -0.76801151834494   -0.53655121038955
O           1.82901386287238    0.96190732841265    1.12058121860075
O           0.49572867378790   -1.09567814017285    0.89884115037452
O          -0.18319835226543    3.24282799009901   -0.52576884684213
H           0.00603727259053    2.31428880199598   -0.76535453365431
H           0.66696211072312    3.68615933381861   -0.51052595703259
O          -0.51394836334338    2.04233807614980    1.87531707214275
H          -0.60910027721817    2.65961556488200    1.12279572061209
H           0.39873373288177    1.70394239240594    1.78597665809203
O          -1.42311357498659   -1.10029335473471   -1.32977262376523
H          -0.84100981328103   -0.30287407166682   -1.28135833585588
H          -1.94144356582825   -1.05139679045819   -0.51812262439981
O          -1.85157043263850   -0.11480999420080    1.42532353083135
H          -0.39505540481750   -0.73328616428445    1.15087478034008
H          -2.21851620800095   -0.37613868380319    2.27210960207195
H          -1.45621074329269    0.79998206709698    1.57688376593364
N           0.78341436721257   -2.53736921354934   -1.43993202704400
H           0.80601262295042   -3.31891372014222   -0.79154244319296
H          -0.17345836304797   -2.05470684297891   -1.39791894766069
H           1.52847566943430   -1.77917644787813   -1.09040709080670
H           0.99573641833736   -2.84241756858067   -2.38510859473775
