    23
        -45.37141688  Gyration_radius:  2.27796164598 Dipole_moment: 7.138
 S           0.27594313864946    1.21378387341815   -0.49738332577095
O           0.37653048944073    1.63158050735929   -1.89717465747641
O          -1.23682710522190    0.74923018330980   -0.40450758509043
O           1.08038425193390    0.01453359520416   -0.25601750833136
O           0.51038831341746    2.24525596899420    0.47268065070494
O           2.68841581700631   -0.03203554712085    1.89627062804219
H           3.23214172339311    0.75310310586147    1.80920968776167
H           2.19387391654605   -0.10661357878200    1.05644044409891
O          -0.37888201977275   -2.02422676082266   -0.87417083194722
H          -0.97706164248679   -2.04356488874415   -0.11809122980726
H           0.33854706466610   -1.40812352786601   -0.58641909557144
O           0.23469979014700    0.77022244993208    2.70302655128940
H           0.27782109335966    1.45981517999369    2.01161906277607
H           1.13089579512654    0.37877583648913    2.69889395114661
O          -1.44705729925497   -0.85904218472108    1.62502077141020
H          -1.35597990962769    0.16457797226129    0.39063309270774
H          -0.75495814720179   -0.33433841987372    2.13673363835607
H          -2.25753726543149   -0.76987082677515    2.13011220050860
N          -0.79885972803669   -0.37797010810756   -2.88893209942736
H          -1.77238361812622   -0.12141290471462   -3.02365925423971
H          -0.71801608863313   -1.11160248273944   -2.11074783368562
H          -0.38923880694445   -0.71850731515954   -3.75363041921373
H          -0.25283975297395    0.52642987259986   -2.51990681823527
