    23
        -45.37333293  Gyration_radius:  2.34006892131 Dipole_moment: 7.586
 S           0.48070188989386    0.85027641179979    0.12786266457252
O           0.85374207726469    0.49411313100176    1.48247227523948
O           0.24187190706539    2.38141572516550    0.06406680022961
O           1.53486004113225    0.55791919401878   -0.84841348009113
O          -0.76301056658723    0.19389699223410   -0.29161101988224
O          -2.68899969110894    1.04292448278025    1.32741939315722
H          -3.33592747037866    1.46916616200524    0.76298308957723
H          -2.01965476491885    0.64860495148318    0.72814074114256
O          -0.43806852273867   -2.39897204235389   -0.71223446993301
H          -0.83317957307545   -1.54726366489494   -0.42962375032738
H           0.31671221525723   -2.50985368421596   -0.09496404148764
O           1.71530838344087   -1.91103835861996    0.79186042607988
H           2.55814584931299   -1.68073605525192    0.39657251827206
H           1.39456173990887   -1.07922111412267    1.19811305423807
O          -0.70627320583200    2.47834115334117    2.44343410127885
H          -0.13459681205643    2.61455957608399    0.96634366950311
H          -1.56647167513325    2.04722905800727    2.25855809133380
H          -0.09203086989718    1.74894136673624    2.61617321544057
N           0.70419160859333   -1.09130695025586   -2.60309193086633
H           0.20552047930958   -1.78738844117551   -1.91478883126258
H           1.09835672655024   -0.33171101198717   -1.91609436683147
H           1.45025737797281   -1.52941882487664   -3.13277590672690
H           0.02398284602420   -0.66047804690104   -3.22040224265710
