    23
        -45.37824523  Gyration_radius:  2.3913067184 Dipole_moment: 5.934
 S          -0.36626588837005    0.87835927935165   -0.08041143314711
O          -1.25477677821636    0.60516358394409    1.02996127426777
O          -0.90664421555710    0.41743635786363   -1.35409739433314
O          -0.14025148992847    2.40613510367536   -0.16522382825870
O           0.95494998197469    0.25583869919196    0.16200224129169
O          -1.93952056491216   -1.80672706177241   -0.46860079682462
H          -1.59071585430057   -1.02063725214635   -0.95726506008950
H          -2.63754008016157   -1.44523239200634    0.08385394414578
O          -0.75643932604276   -0.79859129514730    3.19131746071488
H          -1.56405983166820   -0.84215186881196    3.70555117782238
H          -0.92004713207728   -0.12914244263895    2.48502916522788
O           2.70459630441527    1.00561673159213   -1.68869380101265
H           3.35225762213863    1.54583740946465   -1.23247934925311
H           2.10652289046450    0.65447107696556   -0.99446011276950
O           0.53854146486300    2.29907439382091   -2.63428051338651
H          -0.08131248171253    1.55349835568551   -2.65348262640649
H           0.14133746188260    2.56356394367651   -1.11789008389269
H           1.42532992003750    1.89437756353662   -2.53222185150329
N           0.20438038774028   -2.05047799183559    1.05272753966082
H           0.81980475627417   -2.85491678584709    1.00452132168934
H          -0.10065289602681   -1.82567453561280    2.02659170999978
H           0.67130717684483   -1.15617371918538    0.69302258693375
H          -0.66080142766654   -2.14964716376254    0.44452843912911
