    23
        -45.37722798  Gyration_radius:  2.3942947594 Dipole_moment: 5.952
 S           0.50734811878976   -0.92410502817810   -0.31373182552371
O          -0.77841503246622   -1.07766662596278    0.36120997328318
O           0.53507623132605    0.30654313260932   -1.11045165156901
O           1.61959081178497   -0.94688621288547    0.63036470737495
O           0.69711143893497   -2.11955678059354   -1.27659222567340
O           1.07842648147340    2.57425719130448    0.08084165656465
H           0.79544871259914    1.76987893447112   -0.42112774467877
H           1.81696690539119    2.93818762231774   -0.41049165470897
O          -1.23113576176763    0.16891109230826    2.61013152483103
H          -1.50973762402078   -0.51820816237419    3.21798486378321
H          -1.16326573049221   -0.27108839568729    1.72534441190439
O          -1.29575250612528    0.19436702433309   -3.02144801649660
H          -0.80378586732687    0.22856255567020   -3.84352981862849
H          -0.63918661907889    0.33724253083830   -2.30501056859302
O          -1.79452892750024   -2.17766766475318   -1.87053416901287
H          -1.83532584142091   -1.37375960641409   -2.43050120583841
H          -0.22994022761878   -2.29628014811238   -1.61913282254869
H          -1.89528704624503   -1.85552190941529   -0.96144273177945
N           1.24303153283769    1.02822523503843    2.22769146506992
H           0.26803302127183    0.82616360210619    2.56730809636510
H           1.21027230638724    1.82040293748591    1.53802218560714
H           1.89184229769103    1.20068489203156    2.98729036945099
H           1.51321333557650    0.16731378384759    1.63780518080416
