    23
        -45.37202089  Gyration_radius:  2.3573066759 Dipole_moment: 5.560
 S          -1.06113225527509   -0.23405045810520    0.03600583390910
O          -1.77041991655367   -1.49627660414156    0.18311423839741
O          -1.67410206137997    0.89909755344467    0.67921755725427
O           0.33178244245200   -0.49494002365222    0.72849147044040
O          -0.74023722814136    0.02321455692933   -1.38101316028827
O          -0.50704918610973    2.32338706417952    2.60730551957395
H          -1.04814355585357    1.85718892132407    1.93646759980584
H          -0.70114528644176    1.89955010880931    3.44438943599952
O          -0.09140602656574    2.58855241701262   -1.05250551223481
H          -0.84223777159960    2.90175767176493   -0.54023935607326
H          -0.34046205640267    1.68686544147845   -1.33355382378171
O           1.89778151868153   -2.44517839911690   -0.30530739760278
H           1.40963522020885   -1.80743202953744    0.25264208359849
H           2.73101019931018   -2.02340527251349   -0.52393806838360
O           1.48614913594747    1.73184642162373    0.90685529955500
H           1.09727007978430    2.17957780901411    0.11768266837455
H           0.98471246682494    2.09752756811331    1.66436266869580
H           0.84931267052297    0.40318935050752    0.81313937055816
N          -0.38992690750893   -2.47043374289135   -1.68966762754096
H          -1.06188808883911   -2.38997754668009   -0.85131930322414
H           0.56133369145386   -2.69814389047783   -1.32749954386818
H          -0.70586744670061   -3.09341479671866   -2.42439871188353
H          -0.41496964781829   -1.43850213036514   -1.94023126128416
