    23
        -45.37878031  Gyration_radius:  2.33092015732 Dipole_moment: 5.077
 S           0.44973771973344   -0.36555454942049    1.30334645308404
O          -0.80691361344705   -0.92316607982502    0.76352192458350
O           1.49762027451897   -1.35053974927506    1.37622127295215
O           0.84751556086138    0.78893920701678    0.48568760154736
O           0.14826975217912    0.15171153178308    2.73138203949047
O          -0.99291525430019    2.64073237716480    0.28390991576704
H          -0.26188864421431    1.98465867491841    0.38649867230506
H          -0.66606938581056    3.46141009351579    0.65589618285254
O           0.30283150128958    1.07254382935577   -2.08967502624840
H           0.68929473197552    1.02670457609669   -1.18656993435955
H          -0.40206220603257    1.72240220049867   -2.01554911530693
O           2.20841613028680   -2.31639017743992   -0.93647486096739
H           2.00794714331577   -2.06473215710759    0.00085905304827
H           2.97836342457673   -1.79868810677794   -1.17995014915547
O          -2.21270616194592    0.96139700716036    2.03923779252134
H          -2.00942408186585    1.69682497502313    1.42863847791471
H          -2.14765225058212    0.15783939920922    1.50004362631399
H          -0.76785180713989    0.53558158566898    2.66172868740153
N          -0.19112005486027   -1.49523012988189   -1.67505763836704
H           0.77045245757479   -1.91870027818479   -1.55365588608459
H          -0.08258233272730   -0.52940618554414   -2.07826014256854
H          -0.80276118608338   -2.08801760798030   -2.22499805641892
H          -0.55650172730506   -1.35032043597566   -0.67678088030309
