    23
        -45.37878055  Gyration_radius:  2.33057740627 Dipole_moment: 5.077
 S           0.92203351445272   -0.16874957630503    1.07514164994059
O           1.06805729597880    0.47116982157258    2.47764069432314
O           1.88949807666786   -1.22710959543111    0.94315373490135
O          -0.45292173560359   -0.67376587068679    0.95642413238549
O           1.12504180955239    0.90333535277759    0.07967163704683
O           1.76872537322266   -2.49103980203692   -1.33171865379813
H           1.22967384367980   -3.26185345148447   -1.14311084178648
H           1.94688955953240   -2.07274546691867   -0.45112132949565
O          -1.86247303080054   -0.69361852125653   -1.28484392468112
H          -2.44740886282219    0.04511711631611   -1.09302295936878
H          -1.40686859505629   -0.87294656756262   -0.43200540001808
O          -2.29329704882909    1.17560929220955    1.18341194031238
H          -2.84999042941679    0.98536734066033    1.94014593371628
H          -1.62432734596526    0.45001074581985    1.14784441835597
O          -0.07621667420756    2.66065469538085    1.69981881606551
H           0.41115372819295    2.43202259873579    0.89302987955085
H          -0.99411529035936    2.36762202224793    1.53655764572192
H           0.64890071765584    1.36903490090601    2.37952311249411
N           0.60113819254693   -0.26994166690534   -2.15678041792454
H           0.89100977228138    0.31559558664962   -1.30576972508581
H           0.86509523892731    0.16853636507499   -3.03199937130530
H           1.07801425733130   -1.20403303263330   -2.01933583274365
H          -0.43761233696262   -0.40827226712957   -2.06265513860928
