    23
        -45.37878047  Gyration_radius:  2.33055111559 Dipole_moment: 5.076
 S          -1.17919794318753    0.11565081008097    0.79396518794628
O          -1.26675527665391    0.13561940895842   -0.68024746895121
O          -2.00781942147229    1.31302017594257    1.32091995937470
O          -1.70786864678962   -1.09999419556015    1.35630302129599
O           0.21920423475650    0.33260435053574    1.19029775466410
O           1.27523328306531    2.52250802110550    0.21714577564119
H           0.88761825950435    1.71934082948212    0.64136660715169
H           1.53313446923903    3.10278610863934    0.93514085529217
O           2.32249439190835   -0.38538459819649   -0.24891852614786
H           1.64300338402963   -0.19916067878125    0.43722220234089
H           2.57312628356300    0.48229234323759   -0.57927287492846
O          -0.40780911251225   -3.24371492772936    0.64784773781819
H           0.20147009021235   -3.39891294205768    1.37242350288999
H          -1.00877070713085   -2.51997661550272    0.95961374103449
O          -1.28001255724318    2.81045731810050   -0.66321492675665
H          -1.34717100243909    1.95534855117219   -1.11595018820819
H          -1.83740358159523    2.03666586211631    0.65856160395910
H          -0.32630412400289    2.93413269498995   -0.48939696758859
N           0.35447496844664   -1.74184901970760   -1.38700255200954
H          -0.37942012618601   -0.97638394947314   -1.22417482558698
H           0.33565657499980   -2.09550814870651   -2.33701734840840
H           1.27695307176915   -1.30700335535440   -1.12791300308813
H           0.12616349771574   -2.49253804328782   -0.67769926772372
