    23
        -45.37736264  Gyration_radius:  2.39204104996 Dipole_moment: 5.704
 S          -0.58666807755196    0.54303819289400    0.51160720536171
O          -0.78909873467819    1.18477930065994   -0.78306795785373
O          -0.38982183214393   -0.91022749923654    0.31408932952785
O           0.80731961248025    1.07932833439803    1.00707966544914
O          -1.57735469613803    0.83086234643555    1.50621771228639
O          -0.41012250059942   -1.77541035461346    2.83570437776510
H          -0.38753748697754   -1.54826455651228    1.88448672932134
H          -1.33929504689495   -1.87872792794428    3.05138364661064
O           1.71567748968651    1.30827202742454   -1.60581209515075
H           0.77861143733554    1.47017143261076   -1.35291433554662
H           2.20563258829704    1.46752727781662   -0.79441047368832
O          -1.39642190510775   -0.01817701628588   -3.06477193065023
H          -1.36959686020361    0.45771763438048   -2.20470189957820
H          -1.40942907188399    0.66348804752253   -3.73932598484127
O           0.22331572127740    0.75778459147128    3.48114700418773
H          -0.66050781328401    1.03329120421566    3.19109386222103
H           0.17434448592096   -0.22136758041838    3.49494229780347
H           0.75302869426925    1.01050919306465    2.00566467451828
N           0.75907727380968   -1.12620447472143   -1.97041230324769
H           1.38039944047602   -0.27549897084720   -1.94135520713032
H           0.30297787989937   -1.16845664905792   -0.99269614109093
H          -0.03046718109445   -0.90290079568591   -2.62125551687085
H           1.24593658310191   -1.98153376757004   -2.21269264940432
