    23
        -45.36638244  Gyration_radius:  2.37509292216 Dipole_moment: 7.410
 S          -0.37343335048934    0.94590228427256    0.60202248792063
O           1.05240642317413    0.58234269631308    1.02749809758924
O          -0.38941666328832    1.45325334690510   -0.73564050137476
O          -1.21967573313928   -0.21277482294476    0.81595215332576
O          -0.75956092562598    2.04743979242485    1.59125522863125
O          -0.57622047430442   -2.05552731597189   -0.95416893915975
H          -0.97006933804684   -2.90157886278788   -0.73478330225448
H          -0.90947301635767   -1.40629170630631   -0.29406778881027
O          -0.87115338749927   -0.12536727209539   -2.99179888396473
H          -1.00639523831488    0.55242834649400   -2.31421571253496
H          -0.86063824308251   -0.96416751270047   -2.51137211888507
O           1.65044412556903    0.77672370997699   -2.65950283085337
H           1.31659451666027    1.50970430115528   -2.13094942515857
H           0.84581310946234    0.40314524614712   -3.07713270047256
O           1.91685480564199   -0.95318903371098   -0.71837233321416
H           1.49716276702596   -0.08443486296925    0.31484092405181
H           1.14637610979733   -1.52595526722021   -0.88929095444836
H           1.97567758066052   -0.34103032627859   -1.50730504316402
N          -0.69258693174120    0.41454297061038    3.55821328531603
H          -0.76200160399034    1.56163734089772    2.49450138351643
H          -1.03574572432893   -0.29825297905226    2.92210793902810
H           0.27078084605607    0.20874505049999    3.78729400311588
H          -1.24573968383922    0.41270485633190    4.40491503179883
