    23
        -45.36638237  Gyration_radius:  2.37524879905 Dipole_moment: 7.414
 S           0.09363021165166    1.05637586054120    0.52071163195034
O           0.02080684843296    2.49538307815117    1.03521182351802
O           0.79281716967041    0.23036495177550    1.45655489902366
O          -1.37932623035861    0.64619800612244    0.42948746795005
O           0.64969096918039    1.05054330165110   -0.81917626640269
O           0.83188230189475   -1.44776966861091   -1.63714473314493
H           0.84285748882809   -0.49507818649018   -1.39125929772142
H           1.01387387402670   -1.49408536053813   -2.57723493096309
O           2.20668624570389   -2.07382784305121    0.74621730793521
H           2.03930861334306   -1.17545189929514    1.06520798183190
H           1.90836101247853   -2.07463334506363   -0.17334901783682
O          -0.09280750775801   -2.43609100232172    2.11110514296200
H           0.78705148520041   -2.60589812501919    1.71295797443590
H          -0.01131787188643   -1.54997697373959    2.48024237099373
O          -1.38331190638468   -1.78440807755923   -0.06637316390424
H          -1.01035959035815   -2.15878536491238    0.78298326960113
H          -1.46357812319014   -0.40146875780198    0.21621312601338
H          -0.66634184863302   -1.86264122409961   -0.72267115483702
N          -1.10007564376780    3.29462866755616   -1.11966185781452
H          -2.06533364600854    2.99271129809876   -1.12681654349930
H          -0.44816749438408    2.99467513072087    0.27164592928529
H          -0.53971926161734    2.60749537912101   -1.61401908711167
H          -1.02662710608419    4.19174018478013   -1.58083290227112
