    23
        -45.37387236  Gyration_radius:  2.3411642586 Dipole_moment: 6.138
 S          -0.85791729402415    0.36568536956254   -0.09796784382018
O          -0.86918100057124    0.41424512001774   -1.56313868525102
O          -0.19455063349679   -0.85026259414736    0.36731642358149
O          -0.26147058429380    1.56409602356029    0.47324126531520
O          -2.34269885499021    0.29383511299335    0.34560990220107
O          -0.42808153602376    1.56948621226145    3.12206684626784
H          -0.85761374650096    2.39019337249556    3.36893899643236
H          -0.26422525125629    1.62948210649770    2.15656520544790
O           1.83317653630029    1.49691582440447   -1.16034868343344
H           1.15322139559204    1.63611128031848   -0.47094807310999
H           1.40180617738542    1.74674436106021   -1.97998246737284
O           2.20837854610559   -1.11063967199425   -0.69858672023308
H           1.48462060555695   -1.11037711614921   -0.03654267300186
H           2.36248708813624   -0.15547934697140   -0.86546152530278
O          -1.71485026977852   -0.72805663603551    2.61289741462553
H          -1.00676282061086   -1.14142060112177    2.09711640200926
H          -1.29480710588591    0.04678313472404    3.04326777745560
H          -2.30265693494737   -0.08925091630350    1.27201340214646
N           0.38952664751683   -1.62238306152183   -2.43580233232694
H           0.60412379134487   -1.59446666768850   -3.42700058594984
H          -0.09974961881883   -2.47735529523606   -2.19163335411316
H           1.27842820547631   -1.50866271916523   -1.79987985434474
H          -0.22120335225854   -0.76522331158050   -2.13174082721370
