    23
        -45.37387223  Gyration_radius:  2.34143623198 Dipole_moment: 6.141
 S           0.04062813579562   -0.28038860877381    0.89475102293154
O          -0.93118513809652   -0.04106857665470   -0.16982513884588
O           0.75830783869968   -1.53692062445670    0.65967009885742
O           0.95754429599298    0.83823618332682    1.05670312939442
O          -0.74487756475625   -0.46987063330205    2.21889646696408
O          -0.32915069369509    3.07213010520585    1.68864089097073
H           0.22654109435696    2.31719601879153    1.39906744018946
H           0.07059827834036    3.40077903626222    2.49557751969275
O           2.39716391886084    0.17959126267816   -1.07693962017336
H           2.83577922631796   -0.60333341120946   -0.73776435579680
H           1.95010024099577    0.56899355196123   -0.29871096487361
O           0.19499029952278   -0.15957245031202   -2.55635722499649
H          -0.36692450042472    0.14442539287994   -1.81201649212371
H           1.10257120533429    0.07550325565321   -2.26511835547451
O          -2.41030637965199    1.38243559400685    1.60686936846376
H          -2.25816793974193    1.05902244259919    0.70664025174865
H          -1.47305466161216    0.21868625335794    2.17109817474099
H          -1.83356806024449    2.17119155852278    1.69316169272341
N          -0.04292728633015   -2.51070504324189   -1.55502774064782
H          -1.02182355313187   -2.77238810852694   -1.49811379155863
H           0.52034237491425   -3.27730322454215   -1.90767229941392
H           0.06218107895026   -1.59142147504900   -2.14819203493238
H           0.29523779958694   -2.18521849917616   -0.56533803784136
