    23
        -45.37387235  Gyration_radius:  2.3410291349 Dipole_moment: 6.133
 S           0.19230812658806    0.55897779376557    0.73063025245619
O           1.54020140127143    0.57555599409201    0.18194647586645
O          -0.51219927676460   -0.68103394478315    0.41285516179296
O           0.28740187147678    0.66677541340189    2.27522221996575
O          -0.58628277204607    1.71857034392186    0.28529493253068
O           0.70688201490546    1.10550581966871   -2.28456762727872
H           1.16193688313530    0.87554019164720   -1.44961490551270
H           0.43284036934461    2.01745324655819   -2.16811697646929
O           3.01286590538573   -1.41145694069265    1.14567843775848
H           2.53390793521702   -0.68747588467735    0.68861067890236
H           3.80320945794120   -1.01397727077693    1.51492964436152
O          -1.16832090613172   -0.79631290819140   -2.14375716474357
H          -0.84471919666163   -1.06767016597431   -1.25852332708181
H          -0.46147408230039   -0.19773248531227   -2.46918593569562
O           0.74843426827687   -1.84508038277843    2.51618632194289
H           1.65556814358807   -1.89351746086085    2.14634478052498
H           0.49141458790722   -0.26929751063025    2.57293155028421
H           0.16192898463970   -1.90544961742365    1.74763902583886
N          -2.67648016770976    0.86441224432943   -0.89629567815418
H          -3.19263063833700    1.57260921768120   -1.40749874792320
H          -2.17081635050449    0.14286756792944   -1.55290938975373
H          -1.83705962930618    1.29911970402368   -0.34281050847084
H          -3.27891693990158    0.37161701506803   -0.24498923111570
