    23
        -45.37387236  Gyration_radius:  2.34125161514 Dipole_moment: 6.136
 S           0.75412405618906    0.37061100573727    0.41700753847405
O           1.51412601541680    0.56985908021271    1.75452459973511
O           1.74792843617613   -0.09660008919865   -0.55418929416554
O          -0.26778083075487   -0.65115158638798    0.63302070909093
O           0.17457511885890    1.64511051165459    0.01958562826899
O          -1.46917482850962    2.59206098892235    1.87595933813650
H          -0.93240822679695    2.29717492291673    1.10953362635903
H          -1.16624361622576    3.47695838800960    2.08628162837735
O          -0.25959031508651    0.85365683657803   -2.47945987422540
H          -0.20137532141433    1.27540769121654   -1.59866660518632
H           0.64501589755263    0.83283306139586   -2.79831706417795
O          -1.33975762626390   -1.44684803640986   -1.64643813592913
H          -1.25913604147392   -1.16067519117699   -0.71170537634537
H          -1.15597447010533   -0.62506536005946   -2.15118121225561
O          -0.64593526324905    0.36437668954206    3.12229888760640
H           0.79398039967087    0.53459369354807    2.45223664628373
H          -1.08599727386718    1.20724859558656    2.88157123501393
H          -0.89191339709782   -0.25542134066531    2.41974165985960
N           1.02981112503434   -2.39710647842718   -1.38266101585295
H           1.43227756957239   -1.44508579445218   -1.01995514428060
H          -0.01266361871169   -2.13439294302730   -1.61074925688377
H           1.54078899744650   -2.73388958448879   -2.19183773732064
H           1.05532318362957   -3.07365505104303   -0.62660079057511
