    23
        -45.37273092  Gyration_radius:  2.32865420983 Dipole_moment: 6.065
 S           0.55978657854171   -0.47251631415886    0.54282224906543
O           1.04992353179608   -1.13047894200489   -0.65894541663499
O           1.71332194151448   -0.40171331800726    1.57659594135815
O           0.10057854466221    0.88876535812590    0.27344219150506
O          -0.49770542890600   -1.24203450454564    1.20756231369791
O          -2.22956961518071    0.89086360806126   -0.96723541227699
H          -1.31391664232254    1.12674374570327   -0.70526883131142
H          -2.12234284344441    0.00996509046542   -1.38680512779009
O          -1.42643168300801   -1.60739157985680   -1.50584380949988
H          -0.46930264854650   -1.48707546751791   -1.34459909814289
H          -1.69486835865916   -2.27714378923877   -0.87343274596456
O           1.99670361239982    1.14958222478367   -1.65140511786688
H           1.72998416428767    0.21273415135679   -1.63661490724388
H           1.31995779568456    1.57257057988638   -1.10433089589742
O           3.71785118127577    0.61121683636297    0.27098819269273
H           2.51181866160708    0.01717161271116    1.14589272061290
H           4.25180217102037   -0.11711773435086   -0.05384438399632
H           3.21376735996856    0.95427855361621   -0.51065157794056
N          -2.52024839690949    0.26704453796975    1.50782480499275
H          -3.35626127782322   -0.19831987461310    1.84478426725353
H          -2.28449544105222    1.06500088502333    2.08904660894707
H          -1.65782274283384   -0.41430469657598    1.47800899684100
H          -2.59253048404087    0.58215904677436    0.46200902759445
