    23
        -45.37164940  Gyration_radius:  2.36915798823 Dipole_moment: 6.473
 S          -0.90169167829188    0.11203497935987   -0.41263268904248
O          -0.00034308873509    0.64224465919722   -1.44835183705585
O           0.02392729175858   -0.69655443576742    0.57331535667902
O          -1.56190429830276    1.14732666130512    0.33998667913246
O          -1.79063976800311   -0.90176643556507   -0.97166413750919
O          -1.16399781527395    1.66936453361781    2.92128018193361
H          -1.42052517217155    1.55166340295443    1.98296513893026
H          -1.75964099885681    1.11776481857966    3.42999366751125
O           0.81635121565928    2.74223167353393   -0.01741809306455
H           0.59326416163323    2.05172742918596   -0.67080827226779
H          -0.03169359463519    3.09536314912778    0.26618662714624
O           1.34647427510036   -2.79529322211532   -0.51474344599274
H           1.16987435740416   -3.58417863052709    0.00043812425217
H           0.97305551299082   -2.04676245210938   -0.00654637076558
O           1.25340606749407    1.00503970358284    1.94736237455640
H           1.31989290782852    1.73045892479764    1.28163727715054
H           0.52969290470068    1.28558563943830    2.54444274485294
H           0.57329823891198   -0.02805334830067    1.15829515902889
N           0.02526606648568   -1.65917571502149   -2.53527613547765
H          -0.05504738935631   -1.91761627433611   -3.51213787390480
H           0.65134366492991   -2.28427036432429   -1.98487032774188
H           0.32181253058800   -0.65692702663999   -2.37444994466482
H          -0.91217539185979   -1.58020766997164   -1.99700420368514
