    23
        -45.37013956  Gyration_radius:  2.33010443616 Dipole_moment: 4.364
 S           1.15522342289203   -0.16327273466624   -0.46589608502384
O           0.78030008479738   -0.13040534147071    0.95598669876056
O           1.96551787641240   -1.34108874946818   -0.75157728505574
O          -0.04593928583633   -0.12124652983671   -1.30033345539204
O           2.01713720223661    1.07522498471700   -0.77559442318582
O          -1.62202941271055    1.95859238706014   -0.68584447533905
H          -1.17777868756397    1.17333266783421   -1.05989390661804
H          -1.82606514105891    1.70670254287430    0.23633398902978
O          -1.32876311704707    1.20663897753955    1.89970038726233
H          -0.55588271631837    0.69052077739065    1.59037025278482
H          -0.96336288972020    1.97360041095181    2.34515996614368
O          -1.37044143754865   -2.35166129957857   -0.92033071737435
H          -0.97291794021215   -1.46222148811105   -1.09703860366754
H          -1.44657548364008   -2.77506895013996   -1.77723275580000
O           0.62710688206415    3.17921269899648   -0.27859571976688
H           0.78999516905448    3.80545247171478   -0.98656713356444
H          -0.29786518893002    2.81582053429680   -0.43320116453003
H           1.50618568445857    1.91033207685298   -0.52873044577224
N           0.54752839820045   -2.69027126314807    0.84410705278054
H          -0.32230313504074   -2.80721259642715    0.25961387577200
H           1.31960548245033   -2.41556201040359    0.14521290983542
H           0.46657855493354   -1.76501274697191    1.32898161348415
H           0.75474568812947   -3.47240681000447    1.45536941523460
