    23
        -45.37541736  Gyration_radius:  2.31591309477 Dipole_moment: 6.791
 S           0.05047344382265   -1.32962910066697    1.05486477526066
O          -0.12148510023855   -2.65867205970960    0.52582828864397
O           0.68211130894187   -1.22568712630676    2.34623199637664
O           1.02634910088782   -0.61976253926666   -0.00348544483957
O          -1.18701924308907   -0.52886677099489    0.98223703350179
O          -0.23004889992123    1.15569923024913    2.89745551188603
H          -1.10045363826321    0.97973296539194    2.52243697324923
H           0.18109603351302    0.25930210851857    2.92069499995076
O           0.24680403373924    2.00958893593237   -1.68265377865062
H           1.06458964281865    1.82653617390611   -2.14934956921384
H           0.49283496009450    2.12184663081967   -0.74727585372176
O          -0.05556362811415   -2.37012480818597   -2.04547196548250
H           0.88251238635748   -2.22874896955633   -2.18965870898177
H          -0.12041144485301   -2.62793887585838   -1.08750304346175
O           1.21847277434017    1.89154005561959    0.89216725192474
H           1.18500787086543    0.28166991764591    0.34439908566936
H           0.62166729316333    1.72812483744344    1.68722189566699
H           2.06396774178808    2.16046170451805    1.25614843510249
N          -1.40144069850740   -0.15273066648643   -1.53345779665765
H          -2.33362028390408   -0.07483047994373   -1.92491204167584
H          -1.43315560684990   -0.29724107540855   -0.46004548518963
H          -0.89390816114779   -1.00853376862941   -1.89994073109188
H          -0.83877992542958    0.70826368098830   -1.70593182826479
