    23
        -45.37303839  Gyration_radius:  2.37731245877 Dipole_moment: 4.337
 S          -0.28731146800056    0.52145391561744    0.91547087204506
O           1.16326346292514    0.34138058437862    0.83979225838674
O          -0.69538669700590    0.53223793968256    2.40671808423140
O          -0.73334751507267    1.76412278259248    0.33472364087270
O          -0.96902069900806   -0.62811907587868    0.27745370119986
O           1.07291768001837   -2.29085294642181    0.98376467703015
H           0.19176258296853   -2.27696835716140    0.58998876561901
H           1.37188585062612   -1.36590614429653    0.87204147079289
O           1.80987789281587    0.68557445374864   -1.69167575582580
H           2.72023064143743    0.98610709680793   -1.70649409660089
H           1.59157894178500    0.54608395350260   -0.74112751276801
O          -0.34640626301905    2.14953403541329   -2.22434347347774
H          -0.50134835312040    2.31426311150423   -1.26744128542759
H           0.54242078897002    1.73133900359866   -2.23627056654868
O           0.39373592620041   -1.59744916174065    3.43441771757128
H           1.19861717564081   -1.32198275056604    3.87832692783048
H          -0.33819904914347   -0.29319343711113    2.83695906113753
H           0.67734099528358   -2.04295505063723    2.59576330606853
N          -1.79585446512291    0.03336462149059   -2.04647378363859
H          -1.57153605791259   -0.69339555115375   -2.71843857857873
H          -1.47910116734495   -0.27336253908521   -1.04371578185016
H          -1.22397735889756    0.95322941118637   -2.24745503636576
H          -2.79214285502070    0.22549413452359   -2.04198460170487
