    23
        -45.37013961  Gyration_radius:  2.33003720096 Dipole_moment: 4.365
 S           0.55078197136286    0.15596855551800    1.11879428762518
O           2.02348257264824   -0.26141264482571    1.29113678193699
O           0.07437438003987    0.61993172658244    2.41616303117843
O           0.47615648799889    1.21212941558448    0.10896960880737
O          -0.22067027719834   -1.01608280514695    0.67761594008414
O           1.20700068577614    0.33434297225692   -2.31648666638613
H           0.50576978488352   -0.33618443226359   -2.43556830891724
H           0.93403939403613    0.83331050179388   -1.52248155234526
O          -2.00293403298307    2.05952049006363    0.00879301228696
H          -1.98062781777717    2.99741057737584    0.20688821101302
H          -1.05587897450270    1.78002772654393   -0.06357864789580
O          -0.44529917309114   -1.76595301561776   -1.87443236644340
H          -0.39998683060586   -1.51406878083388   -0.92894104605758
H           0.10760026370737   -2.54522057507498   -1.95910183672965
O           2.90343947702625   -1.09348388555851   -0.97580597711035
H           2.30982678971118   -0.56861710942966   -1.59534412020106
H           3.78737509889986   -0.73869549296444   -1.08861342809572
H           2.36685762320315   -0.64695163343803    0.42348418028837
N          -2.29534684935367    0.08925623548534    1.72332460393399
H          -1.81407871107291   -0.65951193942840    1.17058000256125
H          -2.47518460905872    0.89066033675460    1.06204503191357
H          -3.10957136252523   -0.22295773059935    2.24087067096512
H          -1.44712588112918    0.39658151722063    2.31168858758982
