    23
        -45.37303859  Gyration_radius:  2.37724564313 Dipole_moment: 4.338
 S           0.40637011901236   -0.95358835817716   -0.34627422755672
O          -0.01399204529329   -0.88902747717990   -1.72453304910389
O           1.47388579468230   -0.00425984492503   -0.02766320080745
O          -0.74371387301285   -0.73783612490372    0.56162660428866
O           0.93789597638139   -2.38239257626586   -0.08876200748050
O           0.92264382711537    0.09946612237766    2.54972527198397
H           1.29325215930461    0.27210858408838    1.66078440620998
H           0.00263703833193   -0.11904657508886    2.35590867571190
O           0.61459251677559    2.35618348097246   -0.82386751090476
H           0.95454884857577    1.48554469828161   -0.51224263302561
H           1.39190468408933    2.88226480425258   -1.01960496721148
O          -1.08732807089709    1.33328959578270   -2.59375846229253
H          -0.62878314109518    0.46377508595647   -2.56964438366070
H          -0.47808944846355    1.91914169570724   -2.09304067371712
O           1.93299609714496   -2.32387549075357    2.31614671738471
H           1.29011531742593   -2.42436581398046    0.84299547250400
H           2.88327724173211   -2.22174088523254    2.23079979859836
H           1.58341293748233   -1.44238318284874    2.60403695893197
N          -2.58426678440474    0.54633631620213   -0.65740405191310
H          -1.82661778874544   -0.02957033003966   -0.11526988164211
H          -2.05009501208950    0.95140204674967   -1.53180229573935
H          -3.33308231832401   -0.07234927637565   -0.95057731073164
H          -2.94156409574810    1.29092349541213   -0.06757923985445
