    23
        -45.37013954  Gyration_radius:  2.33019129708 Dipole_moment: 4.366
 S          -0.92524454270975    0.84019131311000    0.12653289893375
O           0.51394524549227    1.12963703616190    0.03500005568901
O          -1.14079067345114   -0.60532170637149    0.19590740580808
O          -1.51051798706730    1.52499551297089    1.27273933353717
O          -1.61706688530710    1.38411150767101   -1.13780203296283
O           2.25981703761467   -0.43873999674271   -1.23707519486853
H           1.65341224902196    0.15406385962098   -0.74687967644862
H           2.47721894762560    0.02861638134437   -2.04605373545200
O          -0.15544645554117   -1.46057879570123    2.46991962308057
H          -0.51292059109799   -1.24774887336812    1.57143810997903
H          -0.87839815386947   -1.87542881733088    2.94374679111417
O           0.05432595895390   -1.89616967448718   -1.82718675043091
H          -0.45735979553764   -1.60624464284310   -1.04743966158590
H           0.97747614785111   -1.65358186121774   -1.61644786493219
O          -0.61054767630332    0.20607384161765   -3.18854342451473
H          -1.33340691391365   -0.00624093652600   -3.78218469437485
H          -1.19128650187796    0.97481273887440   -1.95666177600618
H          -0.32920223383837   -0.66290545959223   -2.76763943180762
N           0.58282598060409    1.05784346557998    2.60592964409296
H           0.44808936757853    0.03045040511733    2.80174494441308
H           1.05877092130537    1.56969904725444    3.34064837448524
H           1.02913871678994    1.13193144774582    1.66089297190624
H          -0.39283215231724    1.42053420711167    2.32941407034376
