    23
        -45.37694092  Gyration_radius:  2.42240225407 Dipole_moment: 4.263
 S          -0.67466392359053   -0.34135809197078   -0.38793106635667
O          -0.30528630835319   -1.60969327446113    0.22692738053999
O          -1.41050568458049    0.45965469755749    0.74957382407587
O           0.53106923730356    0.45406780852984   -0.69915116553850
O          -1.55314355593434   -0.46601837005460   -1.51774390375702
O           0.22093780975782   -0.77875426616127    2.68016594260733
H          -0.09526749947828   -1.27058386866327    1.89102324740212
H          -0.43360973453771   -0.08573338951496    2.80384781847316
O          -2.59140323840972    1.71396778711040   -2.59478741146839
H          -2.20519312160943    0.84915400471399   -2.33301608322760
H          -3.54206183234453    1.59204650287433   -2.57846636651654
O           2.12089449115608   -2.65110650585088   -0.07407209219992
H           2.25769393449988   -2.82923851151893   -1.00591026324307
H           1.16348629548695   -2.45379849909292    0.02533538432955
O          -1.09672690704093    2.63126155224290   -0.57741700251937
H          -1.43933249191278    1.38239193336889    0.36701026949380
H          -0.27575270205564    2.20327994494451   -0.86063840950121
H          -1.70642424756735    2.53565836268461   -1.34110013158681
N           2.24887824739210   -0.24757050601688    1.06411133737955
H           3.05646959895179    0.33329283795427    1.25867739973768
H           1.60503871781121    0.15750278612392    0.29398144953627
H           2.50471472187504   -1.19804240929247    0.70996919860888
H           1.62018819339027   -0.38038053555836    1.89961067377610
