    23
        -45.36921575  Gyration_radius:  2.28823063018 Dipole_moment: 7.091
 S          -0.08369470665598   -0.85801622191267    1.23377475692789
O          -0.69932734661888   -2.12966565690698    0.96605941039034
O          -1.18013894836046    0.27453181697874    1.08338287124854
O           0.45120710937964   -0.64931002041824    2.55203041559381
O           0.93047673097657   -0.54824904158584    0.18694126790697
O          -1.31725194775071   -1.67643124537871   -1.58519848943486
H          -0.46030127978527   -1.94874956846755   -1.96663751397502
H          -1.24481347090601   -1.94097601919225   -0.64333772446215
O           0.77904360876155    1.94764442795477    2.44405850984330
H           1.54389202634913    2.09857451639425    3.00276200928095
H           0.56407167629626    0.98613960095949    2.54715813107683
O           1.30739570210452   -2.33135663226174   -1.78940601111484
H           1.37773189862447   -3.19186536473513   -1.37156210895326
H           1.30787551987271   -1.68290749904216   -1.05870523406811
O          -1.57401238642975    0.88074385367468   -1.47571469396965
H          -2.48448407268801    1.06302163920339   -1.71462516662866
H          -1.43237347874071    0.41093786968157    0.14682615117835
H          -1.43976862246421   -0.10004380847559   -1.66706701121438
N           0.73738063794383    1.92766631538538   -0.20118999910372
H          -0.16543011779095    2.00036367559454   -0.68018559599552
H           0.67839368913382    2.19226427473457    0.81668640966915
H           0.93797010877084    0.84508131798027   -0.13041934956173
H           1.46615766996336    2.43060174978396   -0.69563103462395
