    23
        -45.37202091  Gyration_radius:  2.35684843393 Dipole_moment: 5.563
 S          -0.44830106843718   -0.02805416782574    0.99143182912199
O          -0.46561405571647   -1.06000729253275    2.01751886487985
O           0.86726630266312   -0.32410370151953    0.17327453426060
O          -1.54901329309973   -0.22883640426084    0.02959464498547
O          -0.37696039927714    1.32598345716656    1.47616125652977
O          -1.36623052090851    2.17604673431608   -1.10570623782042
H          -1.34192134472641    2.74289692579056   -0.32958545316205
H          -1.58285191036844    1.28868450754749   -0.75955399746305
O           1.05759797745057   -2.72272580047310   -1.06584831809490
H           1.20752704967536   -2.52664006053331   -1.99264467049458
H           1.19630095646759   -1.88240806949728   -0.58531913704734
O           1.61930094375980    2.99900260110259    0.90572844259286
H           0.85435445565639    2.46814968195512    1.21142606549890
H           2.31295551615325    2.85884071074913    1.55159982610146
O           1.22040318328946    1.62943334991198   -1.36988102582998
H           1.04538856748004    0.45812464156676   -0.48876710973614
H           0.28137235564931    1.90365384378576   -1.50316839613691
H           1.56944775749958    2.27011962054679   -0.71667383621464
N          -1.24269666408595   -2.73311589696587    0.29752102840750
H          -1.63597419694512   -1.82185910994821   -0.08057869959727
H          -0.43099199747485   -3.01248967686343   -0.29502083647826
H          -0.86427188487160   -2.31056620729367    1.21376256118754
H          -1.92708774982833   -3.47012968672395    0.42472868450804
