    23
        -45.37471687  Gyration_radius:  2.35337013552 Dipole_moment: 4.945
 S          -1.00316314733955   -0.17230766250896   -0.84884937487984
O          -1.47796283976577    0.44899297283470   -2.05131542162244
O          -1.56534067286456    0.41172120169487    0.37144596232748
O          -1.08307278785269   -1.62763326205351   -0.82175704380390
O           0.56783301804852    0.11521210408809   -0.74732927193942
O           2.57789739318105   -1.67010370680873   -0.29443339553533
H           2.83678184463418   -2.05842746001243   -1.13203466998190
H           2.00374847716772   -0.91204252522379   -0.51135676167251
O          -0.14618214214937   -0.16403430474196    2.46873461673440
H          -0.78393571407343    0.08959342473316    1.75273707484060
H           0.49715916426671    0.54682004178869    2.50322488737285
O          -1.27701478872923    3.02605863637015    0.15364615112901
H          -2.12846310684809    3.40575745024242   -0.06996525457472
H          -1.44169747911031    2.06760304614327    0.29735045372798
O           0.33735897784567    2.37660827626684   -1.88839286756001
H          -0.38387486726354    1.92305979090307   -2.35854173965327
H          -0.11003215146495    2.86519284530861   -1.16513332349819
H           0.65063057972648    1.02770778279117   -1.16947106581737
N           0.39649474260962   -2.37262860343604    1.12440428016966
H          -0.28404670984601   -2.14833443830176    0.30725565803341
H           1.35527179864011   -2.32566228036389    0.72402394914221
H           0.26631119420200   -1.58000310406175    1.81124702126363
H           0.19529922699499   -3.27315023565787    1.54451011578794
