    23
        -45.37471673  Gyration_radius:  2.35207413562 Dipole_moment: 4.927
 S          -0.89488032172568    0.97208350667201    0.09610480079649
O           0.40242031684837    1.60720486909546   -0.14883539409190
O          -0.53363468117195   -0.50835379938139    0.58502899156092
O          -1.64978014689713    1.59879013115667    1.14235912678613
O          -1.61666780612492    0.74989667239837   -1.15071070518141
O          -0.91119150190565   -2.85276342637710   -0.75513188569116
H          -1.81159073023015   -3.14744117465523   -0.60701780813230
H          -0.75275680151080   -2.13067872811811   -0.11885174969107
O           2.02445426847228    0.02359044014061   -1.41559275327130
H           2.45585058364669   -0.46211671421526   -0.70960686479412
H           1.48852064830959    0.72627860413374   -0.96535232133276
O           1.56878281253131    1.86919071727625    2.20385368699275
H           1.50302560470137    2.78695658936719    2.47329003257183
H           1.19105653319032    1.82946269146036    1.29703067199332
O          -0.38123576795893    0.21630168481835    3.01813287974954
H           0.45068432570514    0.73359197063294    2.96956883794986
H          -1.07362488150791    0.84204522381069    2.74280482002956
H          -0.42516846134185   -0.38919566554078    1.58099577444819
N          -0.20342986748019   -0.91055931179049   -2.48438054535466
H          -0.30952201941894   -0.91026076387078   -3.49267039989503
H           0.77695923357060   -0.64520416099899   -2.19155663484961
H          -0.84555981723161   -0.17273747694714   -2.01127722659014
H          -0.45271152247932   -1.82608190909228   -2.05818533402022
