    23
        -45.37471683  Gyration_radius:  2.35222170823 Dipole_moment: 4.927
 S           0.87595779290203   -0.98708991078047    0.11683083455982
O          -0.02254825766632   -1.33932395611722   -0.98533676594845
O           2.26213428685244   -1.19767918864095   -0.18577368614075
O           0.66293470235824    0.58541749544401    0.32459132989467
O           0.41556294623873   -1.56003447660057    1.37565430477544
O          -2.35242252185687   -0.22254394710302   -0.72239274549013
H          -1.52073230966058   -0.72858272815338   -0.91170725863594
H          -2.24268312033385    0.62434753951362   -1.15955485196780
O          -0.55247663123632    1.84664105444188    2.41436953124992
H          -0.04632993514965    1.57472371146150    1.62617923282670
H           0.08797177878295    1.95367253623010    3.11991297578190
O           0.93594123848992   -0.16844135240223   -3.14739296522105
H           1.37042160316373   -0.83337528237843   -3.68423876856021
H           0.53206189684246   -0.65510180640331   -2.39471292539314
O           2.45737004851871    1.16173135380661   -1.38314565691998
H           1.32785395216135    0.98313163152061   -0.32147752772950
H           2.85639155580437    0.33816404461855   -1.05229702084707
H           1.98143532109732    0.89452598027255   -2.19810634045647
N          -1.83822600039760   -0.45568010020021    1.85858720654318
H          -2.22292683581404   -0.31289522987408    0.88464417461949
H          -2.48831208121821   -0.95993665858262    2.45106597935555
H          -0.91273661832173   -1.00678592328110    1.71519489674960
H          -1.56664280146198    0.46511520315050    2.25910603698698
