    23
        -45.36921562  Gyration_radius:  2.28817075789 Dipole_moment: 7.091
 S          -0.60549725132685    1.02714836414395    0.91841892761789
O           0.73060606058918    0.40025175047613    0.71245900427572
O          -1.02246683995685    0.92070352493200    2.29036603374226
O          -0.63660154167055    2.33413416486025    0.31971129348475
O          -1.61663113559217    0.09107569023947    0.13836012531535
O           0.30018371918278    1.63397887303897   -2.07374226790950
H          -0.14446109817577    2.01401527807975   -1.28616413544427
H           1.24977149623232    1.69687795040936   -1.85381700112457
O           2.59510019682667    1.79077817565355   -0.63610333780089
H           2.59311199370883    2.67730656996114   -0.26989702494322
H           2.01627895369321    1.26326406394591   -0.05204264863985
O          -1.28733830263623   -1.68207064526714    2.42554548638071
H          -1.29805440417935   -0.69325131509036    2.36841142060004
H          -1.06769862899180   -1.88187234031046    3.33764362588617
O          -0.53620068209493   -0.79803891493849   -2.12248243695307
H          -0.09902624634111    0.10718931211165   -2.20024689072940
H          -1.28474013446391   -0.13325812842173   -0.75560329085295
H          -1.13938792329965   -0.85241429184966   -2.86583671365044
N           0.25844867761144   -2.03490397152044    0.30709274276169
H           1.00297298289837   -2.72102058395733    0.36591700572609
H          -0.45166205695129   -2.13724936716857    1.07800696164105
H           0.61323340836136   -1.00383982409282    0.47745015310001
H          -0.16994125341437   -2.01880432523998   -0.62344703247492
