    23
        -45.37471692  Gyration_radius:  2.35249120866 Dipole_moment: 4.930
 S          -0.41481926119196    1.14808545597893    0.51954042830318
O           0.12936803507950   -0.31298083479672    0.88084710254514
O           0.80327507512031    1.93213024007043    0.35715984388500
O          -1.10920670325615    0.97775313977192   -0.75921160276013
O          -1.27741372021755    1.56289296990211    1.58775427306035
O           2.71136130640036   -1.19008865095621    0.87825225969005
H           1.75339901973935   -1.03985087935231    0.98328111294552
H           3.11160373537076   -0.96552073999966    1.72015491707004
O          -3.23543552774471   -0.50810251959675   -0.27523366279908
H          -4.00774220391279    0.05993013643436   -0.27431496079353
H          -2.48069106452646    0.06809309799092   -0.52977087746074
O           0.25019225914534   -0.49771322111725   -2.40819530905129
H          -0.33981390736224    0.10336666081441   -1.88447082814560
H          -0.03985488188912   -1.38798699681108   -2.19910391249814
O          -2.02537647680348   -0.93482060656158    2.08083279866061
H          -2.61517342244465   -1.01318718400821    1.30110938049676
H          -0.64937509504383   -0.71899491307899    1.37721846695879
H          -2.02983072535764    0.01419424381415    2.29581134184297
N           2.32814718304662    0.54197319124154   -1.15117286990132
H           1.73470581232567    1.21866143507901   -0.54234877454810
H           3.03436627868357    1.03715570151515   -1.68408645802057
H           2.73910172081174   -0.15256747969281   -0.49504894221654
H           1.62921257401158    0.05757776336080   -1.77900372726022
