    23
        -45.37580217  Gyration_radius:  2.33624601369 Dipole_moment: 5.561
 S          -0.32310567955653   -0.51493447091495    0.99486656624035
O          -0.59397609928972    0.14420718936456   -0.30040733392915
O          -1.39949489751938   -0.35319335703658    1.93326719321343
O           0.10280708022416   -1.89162399403185    0.78063777164420
O           0.95237566934618    0.21069890883684    1.56028910107273
O          -2.22338417668101    1.95680018342411    0.99226003715136
H          -1.88347676028243    1.75420120794244    0.11375393792608
H          -2.20272562056372    1.08741779318339    1.44293490699299
O           1.90617685079789    0.49113790290520   -1.07779144406903
H           0.95010224676243    0.53133317063339   -0.84813518251064
H           2.35686555959964    0.67852923741927   -0.24968397515094
O          -1.01529291393914   -1.17278569916973   -2.56016013809320
H          -1.13549361534142   -0.50797640180595   -3.24059111696777
H          -1.02693041940986   -0.69027186957666   -1.70259161927667
O          -0.04287006244544    2.44907733075289    2.39226655182422
H           0.63579964226880    1.09225234143734    1.90842432492287
H          -0.88003182312452    2.45761078514003    1.85950610527081
H          -0.31775142490208    2.31854452389961    3.30258102853687
N           1.25990287040952   -2.04041337347169   -1.48655517362594
H           0.45262782177488   -1.91957426758941   -2.13830429409635
H           1.78742577202015   -1.13268536255301   -1.47032152746086
H           0.80647882929148   -2.10285194744719   -0.49849147902709
H           1.83397113072872   -2.84549983135314   -1.70775424055530
