    23
        -45.37247596  Gyration_radius:  2.38959588635 Dipole_moment: 4.421
 S           0.58748907400771   -0.00843000273442   -0.73293297329466
O           1.37155619017736    0.69676504435502    0.44413554505943
O           1.52154333740510   -0.60620757485569   -1.64442941316376
O          -0.29623964496706   -0.97761912756171   -0.08989865431993
O          -0.18465587469473    1.09616912362228   -1.32344681395387
O          -2.84290879777925    0.63505403454191   -1.45639229125636
H          -3.02872375868986   -0.10402387030255   -2.03744492267509
H          -1.88649763090874    0.81608375574861   -1.55055329724306
O           3.17197866429542   -2.38796149300035   -0.58656694288937
H           2.66191464042334   -1.70526638286294   -1.07395220493685
H           3.04900669846386   -3.20526542705607   -1.07227052454145
O          -2.30027298189218    0.17597452492318    1.13492870785403
H          -2.84586948951043    0.30334654465417    0.33253481558422
H          -1.57718988682474   -0.41527144096996    0.80985523153643
O           1.77371164283321   -1.57348879197987    1.55113600970937
H           2.43145640717836   -1.98444242744935    0.95107647516940
H           1.68936940274976   -0.08293958911725    0.98767169842695
H           0.90827631504090   -1.76973960789486    1.16039633839529
N          -0.84165388739716    2.26501491232100    0.86385102798312
H          -1.28724782938398    3.17684882563903    0.85177221256635
H          -0.53087745672350    1.94824441267645   -0.11844109470971
H          -0.01152191592430    2.25393719055809    1.45272061926594
H          -1.53264320787934    1.45321737674416    1.14625045143454
