    23
        -45.37247597  Gyration_radius:  2.38964734652 Dipole_moment: 4.421
 S           0.60100409530031    0.39663993362859   -0.60284160305708
O           0.67716105304795   -0.64877510359211    0.41460267675379
O           1.88726867525738    0.85675626063437   -1.04404602082569
O          -0.28844591233017   -0.00536088439420   -1.70385780758584
O          -0.18659320262976    1.58892528241313    0.07189699838612
O          -1.63094003540146   -1.81975058027409    0.80068113639851
H          -0.71886557167870   -1.44082670982912    0.85160859867771
H          -1.56881550482298   -2.41649127265983    0.02747272968959
O           3.43888651115130    1.89329757805773    0.83582071256167
H           4.25375709440741    1.38831591857841    0.83486632723791
H           2.93414312895863    1.59219076208995    0.04941953035153
O          -0.96492986513301   -2.62018668923584   -1.67619768126299
H          -0.19041571284119   -3.17060756637952   -1.80117776411587
H          -0.66508958495149   -1.69986862931894   -1.81583231385769
O           1.20433739355024    1.31737287385486    2.20076431094374
H           1.18688095281438    0.38465555382058    1.93630662570419
H           2.08215644683017    1.65274233177506    1.92061182516928
H           0.28706796789317    1.68931083522012    0.94941435673331
N          -2.51519499916209    0.23297350250069   -0.45222167761949
H          -3.39865647267762    0.16345265734280   -0.94697632037818
H          -1.66941978959676    0.21729007368482   -1.12034639012459
H          -2.44726381504756    1.09297336340885    0.08797884537745
H          -2.30803286294013   -0.64502948132503    0.18205290484511
