    23
        -45.36528477  Gyration_radius:  2.3816321577 Dipole_moment: 3.485
 S          -0.55958561035071    0.04681893661058    0.97844540013272
O          -1.06520883831927    1.20659757317814    0.26570934169473
O           0.72915810698757    0.27917878053976    1.60296206127613
O          -1.60029704338062   -0.30997294380002    2.07360800920968
O          -0.49193073524172   -1.12833417690021    0.07840698379776
O           1.53352855177731    2.16117509411293   -0.06398470452144
H           0.66947773976826    2.57182792607221   -0.16926340769697
H           1.39188072440115    1.50296984535006    0.64992598418273
O          -1.96451642500966    1.18353352681522   -2.16968670250188
H          -1.69038353954207    1.32061967660976   -1.22721866489233
H          -2.88512817183057    0.91637228134151   -2.14462979180981
O           2.00773518577077    0.63949629486065   -2.12853327520167
H           1.86170126299284    1.29726635241116   -1.38965055826839
H           2.75489676177063    0.10202488784978   -1.85987365062685
O          -0.18222435086269   -0.63276097606402   -2.30333060202372
H          -0.90310128632294    0.07859024545317   -2.43294515169423
H           0.72109387312285   -0.13446652851189   -2.31853823090027
H          -0.31705686217831   -0.92172045092509   -1.25879272356919
N           0.04929713932724   -2.16691500023040    2.85336201762308
H           0.73748718204202   -1.45942545162162    2.60909094877222
H           0.33260366460165   -2.62557400054508    3.70983856420937
H          -1.16513887940942   -1.07779112965831    2.53872480098897
H           0.03571153968512   -2.84951077270375    2.10637332197551
