    23
        -45.37182609  Gyration_radius:  2.39740025557 Dipole_moment: 5.931
 S          -0.60631509790433    0.10824090118570    0.68661304570370
O          -2.04236887438557    0.25274232118778    0.70718395636060
O          -0.30204038171360   -0.84201740252218   -0.52566508686513
O           0.04724154267676    1.39339472359449    0.31140515291898
O          -0.02281190805501   -0.45063679565589    1.87898147521071
O           2.48519073317265    0.71797407126745    1.17903264484791
H           1.64424485457947    1.12299145714738    0.89522866578765
H           2.29829267619895    0.35351838335391    2.04899462327118
O          -3.25129072006236    1.30197098270040   -1.31727691211173
H          -2.90328765026775    0.80811448124966   -0.52449089384613
H          -3.73758896371623    2.04691393155218   -0.95898940333372
O           1.32791138183234   -2.74323228458502    1.93118771470672
H           0.81508273596935   -1.91549064887341    2.04430074810139
H           0.69151068885026   -3.45748175647595    1.98166690304523
O           2.13115216502082   -1.47338118471955   -0.29757204425952
H           0.68514396059027   -1.13377335365290   -0.47135971790527
H           2.47431809588231   -0.66416723238661    0.14920057044928
H           2.05289992701475   -2.13306126149023    0.42121155169788
N          -0.74858888436758    1.36132359224516   -2.07551267241187
H          -0.33784395406329    1.51014244797328   -1.05353337728769
H          -0.36437049523974    1.99820340883404   -2.76575121511765
H          -0.53495153302963    0.38596864103512   -2.29003575111188
H          -1.80153031898818    1.45174255704053   -1.95481998784658
