    23
        -45.37383446  Gyration_radius:  2.27503258446 Dipole_moment: 5.648
 S          -1.38261289683352    0.46277732428031   -0.20837907513561
O          -2.35465840058413    0.57004497727471    0.88263577507209
O          -1.04703012363130   -1.07985418489712   -0.25955797792173
O          -1.87160877102373    0.86997499128541   -1.49717354132795
O          -0.13451935256899    1.12589618318993    0.17859499741731
O           2.15376985379989   -0.06245892706466    0.06512124096144
H           2.84315071693828    0.56972562320172   -0.14209329338545
H           1.30202202190881    0.45210729528418    0.07210150499099
O           0.64104648454785   -1.54370671685041    1.84158333652592
H          -0.02081667935722   -1.70597207153228    1.14608658588030
H           1.41358967168370   -1.19963025906410    1.36368804139739
O           0.09701138010371    0.92600016146299   -3.23096823119322
H          -0.32262833040328    0.88843053186697   -4.09249538580569
H          -0.63784085864819    1.03456527026731   -2.58314752565958
O           0.81127365798203   -1.31216749596706   -1.98675732737659
H           0.64345742346922   -0.53930520251497   -2.57417928571608
H           1.52375729886030   -1.03346238491629   -1.38617972833413
H          -0.37956752079096   -1.23760181619534   -1.01163731330371
N          -0.64883229803189    0.56990589014284    2.73402022958772
H          -1.49313495437471    0.56032454062830    2.00247639261364
H          -0.95904400952426    0.61999336067740    3.69884688500970
H          -0.08588428921531   -0.31337696597210    2.52330824831930
H          -0.09090001430696    1.37778986541310    2.46410544739208
