    23
        -45.37383448  Gyration_radius:  2.27504811749 Dipole_moment: 5.648
 S          -0.09906698130035   -1.45764426081880    0.18498156241963
O          -0.72624487397612   -2.04582590481818    1.33679046687439
O           0.40704754304270   -2.41729821071920   -0.79969276898930
O          -0.93326551294179   -0.45780292093388   -0.48710322114917
O           1.19643298841402   -0.68536990979573    0.65428529278794
O           1.78793612564913    1.06692263972032   -1.36030628739954
H           1.11348361090451    1.70447848357872   -1.07354546864229
H           1.90842790195068    0.48069681367461   -0.59222336076892
O          -0.52425434683684    2.07785448935565   -0.23300179763938
H          -0.75300632344112    1.11283207143424   -0.31504477581451
H          -1.35551344877897    2.55176321735665   -0.28029533600792
O          -1.85494887038535   -0.18217504019382    2.79872318403420
H          -1.55138688627864   -0.91576244763179    2.21457682135454
H          -1.96565514638980   -0.57368288427533    3.66717042077416
O           0.36314941528007    1.15709133742648    2.20393710046767
H          -0.47289550965321    0.76975726463010    2.55263431354554
H           0.92465589724843   -0.00208313850248    1.35804452547162
H           0.09363161848967    1.75767181309000    1.48792203236027
N           0.49510618264477   -0.78387317977823   -2.71331254253859
H           1.07821152002390    0.01265947629391   -2.30452651709739
H           0.51664179723859   -1.58927391577956   -1.93949959694348
H          -0.47849994272686   -0.48706955724816   -2.74091746328978
H           0.83001326182367   -1.09386625608490   -3.61959657379349
