    23
        -45.37383450  Gyration_radius:  2.27508303226 Dipole_moment: 5.648
 S           0.16156646655530    0.83011064850922   -1.20558841782142
O          -0.06839325102933    1.12617980808500    0.21095179192381
O           0.07300125501172   -0.74199782096827   -1.33178100956384
O          -0.97532344777272    1.30597253664089   -1.99783016886018
O           1.45001167857056    1.25744985217445   -1.67804355715182
O           0.07500704063916   -0.68713923889315    2.04196883656983
H           0.39394361207143   -0.30430372127918    2.86022051070078
H           0.06427068330799    0.05384226370636    1.37776599065560
O          -1.94603609976306   -1.50923540862336    0.34519875648781
H          -1.38353626124841   -1.44740433651723    1.13473807519572
H          -1.31767128041332   -1.52524034270510   -0.39850756448470
O           3.30995456881783    0.59174720905014    0.04891978146256
H           4.13220540751776    0.60998688515632   -0.44431094966074
H           2.62871147866186    0.96349919565855   -0.55866747173206
O           1.88818516699418   -1.64914613012469    0.20859239819936
H           0.84793452740709   -1.14927123151852   -0.81250564285280
H           2.54111837430536   -0.91151296047929    0.21349716581015
H           1.36992557655824   -1.54428419757166    1.02494262773783
N          -2.69682825297262    0.95485036733343   -0.19476095917653
H          -2.30654464072947    1.53874544723556    0.54251325762379
H          -3.66984234199379    1.17159679122337   -0.38434011046192
H          -2.02919071035520    1.13446154923406   -1.07224245986265
H          -2.54246955013969   -0.06890717532847    0.06926910926004
