    23
        -45.37464881  Gyration_radius:  2.23494142726 Dipole_moment: 8.245
 S           0.36014070350468    1.24414161085316   -0.67842508118161
O           1.04749186458982    1.51778021728352   -2.03089028991305
O          -1.02318219259089    0.84490779646025   -0.91266958306258
O           1.08804246743758    0.16311667858282    0.00425516442946
O           0.44086736807574    2.46940838377830    0.11342263101139
O          -0.16371764160031   -2.01250071969416    0.73684323169918
H           0.48533923609851   -2.67827824031230    0.96753117240803
H           0.34073027765190   -1.20829694800813    0.45568486772564
O          -1.89075780400859   -0.00797714057943    1.41628441861618
H          -1.55172181836855   -0.91522891726473    1.34526255517533
H          -1.78079852249142    0.35926942054618    0.50659514632683
O          -0.90492849328435   -1.60992305713257   -1.97922284376539
H          -0.87671624238741   -2.07947707448986   -1.13461510430989
H          -1.12369664607891   -0.68844413561644   -1.74241315861022
O           1.62524415776329   -0.94523578230323   -2.44732481593709
H           1.85901195478766   -0.93603733962922   -1.51022070140641
H           0.71393357906263   -1.32526322179552   -2.48312628808873
H           1.32009360424255    0.61779745258801   -2.38602199123258
N           0.01456668089980    1.44345167515327    2.39701415848851
H          -0.83305578629655    0.81628930970143    2.11907462460901
H           0.23413464756776    1.99365485419973    1.47091488602061
H          -0.20383478252095    2.07156952459253    3.16390617910242
H           0.82281338794701    0.86527564308651    2.60814083189496
