    23
        -45.37164937  Gyration_radius:  2.36911663563 Dipole_moment: 6.477
 S          -0.43944759862789    0.30965619011849   -0.84079138614381
O          -0.39828207034648   -0.28538310423998   -2.17296150084177
O           0.85638562399025   -0.24570890287310   -0.13698007385704
O          -0.37989431670833    1.74845124001678   -0.81889081542291
O          -1.56742077013006   -0.22930793692518   -0.06413544093277
O          -1.45149192329870    1.62141909626773    1.85644739848401
H          -1.64224161229458    0.90260877656144    1.22370087326453
H          -1.43111301066430    2.42033236115257    1.32193655304803
O           1.53860552993874    3.19318485941932    0.33226934033516
H           2.24203873382234    3.31375672661405   -0.30684802526926
H           0.79883015341452    2.77376630854599   -0.15454411612452
O           1.10063106270174   -2.94336471079247   -0.09079227038690
H           1.11773951120515   -1.96968109299994    0.00651902822775
H           1.95384299757752   -3.19232993548221   -0.44983283463623
O           1.15194333378936    1.09119621084291    1.96581597241827
H           1.48153442239000    1.92894677205121    1.58048672673876
H           0.20436413590454    1.27087295592418    2.17469508234317
H           1.01301015644649    0.26987607484707    0.75745147807283
N          -1.25404154224828   -2.46017684103228   -1.24897562037996
H          -1.94337187907505   -3.08483787394265   -1.65160672910550
H          -0.87190258528183   -1.69733819318984   -1.91744287292023
H          -1.64450388397177   -1.78543045954678   -0.53435227021560
H          -0.43521446852780   -2.95050853132165   -0.83116849670811
