    23
        -45.37246049  Gyration_radius:  2.37373069084 Dipole_moment: 5.939
 S           0.85495481057631   -0.19499657084606   -0.18903162884745
O           1.55460953134597   -1.47385203722170   -0.35849000135618
O           0.78317660104589    0.17561792925818    1.22592989034178
O           1.37125489028188    0.86748603492260   -1.01484330545222
O          -0.61163381495427   -0.52970505723847   -0.62775398171095
O           0.15743779763610    2.71926854293970    0.72700300668121
H           0.37565122352086    1.85047742036245    1.11449571716711
H           0.85025450101292    2.86240069101378    0.07540750432266
O          -0.04907537277832    2.02422946389807   -2.94572834681061
H           0.47338541698882    2.74183425062822   -3.30687013250822
H           0.54056693768022    1.53733125690102   -2.33295892418982
O          -0.17911733072160   -1.64580587641973    2.79585029425711
H           0.47573088252862   -1.76719600855613    3.48575476888388
H           0.13632834136715   -0.86547308091908    2.26500312312174
O          -1.75182842341020    1.71465916057199   -0.85842183132560
H          -1.22005628449666    2.22946730288346   -0.20880828950376
H          -1.39312457024898    1.95236182536775   -1.73411597911623
H          -1.13899843034094    0.34930349692312   -0.71760393637809
N          -0.26639313809952   -2.95957689135720    0.52406460814322
H          -0.19426225593780   -3.96824268780944    0.44382328977188
H          -1.06870393216894   -2.58977496501773    0.01537290621345
H          -0.31116126072268   -2.62067763115870    1.52704196923983
H           0.61100390989008   -2.40913657912178    0.09487928905739
