    23
        -45.37464884  Gyration_radius:  2.23499456929 Dipole_moment: 8.245
 S           1.46179463189932    0.03031469896562   -0.00243682435584
O           2.17948393280747   -1.09896499541627   -0.58949092460962
O           0.39383462140492    0.46809357873959   -0.91472187947946
O           0.89884362313101   -0.30806931032552    1.30002491348457
O           2.46818883994599    1.18643545391088    0.16218707230474
O          -2.10389881199499    0.41593924955000   -0.14269744658579
H          -2.62903171629403    0.92044109456096   -0.76516784519329
H          -1.16614620627255    0.46373795712470   -0.45681400224665
O          -0.70796643483034    1.73271633269370    1.95621691942867
H          -1.48622947396445    1.39379579119713    1.49354449860170
H          -0.07209218410402    0.99203689023971    1.94545038786633
O          -1.08839233503716   -1.94666981381263    0.77879963925081
H          -0.33656142727184   -1.44049285419880    1.16984465168288
H          -1.75847964274781   -1.26776687798884    0.59680182438325
O           0.66945465967640    3.01150498094600    0.07758670853774
H           0.14432211200463    2.76410131234885    0.87712912627295
H           1.91672665619492    2.02627343467452    0.19360899186056
H           0.30993154858573    2.47202167916805   -0.63835251165229
N           0.16728344446121   -2.39346122427169   -1.44008362779083
H           1.10995587216755   -1.91214505532396   -1.14257401470191
H          -0.23607765202761   -1.83869498471834   -2.18956427528802
H           0.31176338289701   -3.35647129224807   -1.72670694728956
H          -0.44670745063188   -2.31467605581741   -0.54258441447655
