    23
        -45.37464878  Gyration_radius:  2.23507916473 Dipole_moment: 8.246
 S          -1.24245061511677    0.56339639757821    0.52505290705476
O          -0.40228838554812   -0.60632440739191    0.82548666451656
O          -2.70861922673517    0.09829926775979    0.42219454022019
O          -1.16057337024666    1.52422286447631    1.62280343569838
O          -0.83535886641218    1.15884118414087   -0.74281077953306
O          -0.64992035649380   -0.87281170706029   -2.47936085863920
H          -0.80324883220273   -0.01872602361590   -2.03207118571866
H           0.26169514229835   -1.10532989212797   -2.25683150189898
O           1.76641117267201    1.47051180479910   -0.54490428223100
H           2.01526495299655    0.57176589363303   -0.81584386050674
H           0.80471867054083    1.52641231889467   -0.76038848020932
O           1.58020728384156   -1.24654421970097   -0.75460899165238
H           1.87799492273040   -2.12958857026564   -0.53259504463275
H           0.82580482151552   -1.03939030163552   -0.14766727646492
O          -2.11557974583394   -2.14660987536316   -0.66519275196854
H          -2.68050508526280   -0.79378805081271   -0.04014913499518
H          -1.69463967639745   -1.82133750413431   -1.49779858296399
H          -1.40672287442936   -2.15398124464886   -0.00921392783832
N           1.34661414259990    1.40992164442400    2.00843433119266
H           1.65755061429532    1.47436831371833    0.96537677891053
H           1.76913630534505    2.13194411082967    2.58339293098941
H           0.25433025325844    1.52257776742510    1.95232009837393
H           1.54017876258553    0.48217022907726    2.37437499229793
