    23
        -45.37303915  Gyration_radius:  2.37700829748 Dipole_moment: 4.347
 S          -0.14003851535654   -0.50643771630270    0.96361221315406
O           1.00225201339895    0.34468852906781    0.55841357089993
O          -1.38929944401637    0.07217636121765    0.46621627346537
O           0.06163811903377   -1.86826767634496    0.53324889993818
O          -0.19088511922773   -0.50912138369529    2.50867182681328
O           0.30461742579533   -2.33917600045226   -2.02878636385461
H          -0.38655181069827   -1.69443064542357   -2.29661143461050
H           0.13527814239671   -2.45991762574253   -1.06762866614325
O          -0.56512813669495    2.57198312734915    0.63752444810324
H          -1.08181061826696    1.76520475630703    0.43870866663724
H           0.34553330643765    2.27229539238630    0.52453980227587
O          -1.39125514741093   -0.29335562804963   -2.14322721497500
H          -2.30936069945510   -0.32760706999572   -2.41750740158584
H          -1.41041760670142   -0.13957936277723   -1.17012340154447
O          -0.85164139098086    1.91909007324676    3.17575831346443
H          -1.79388600284146    1.91942054690363    3.35711479894242
H          -0.39664914051334    0.41622941863043    2.81733941086868
H          -0.73817894576858    2.35642196159618    2.29379202661365
N           2.19232497236334   -0.69343355594814   -1.44917647586012
H           1.45854807546500   -1.43643163939426   -1.80169293464073
H           2.36569485425560    0.01423393278873   -2.15572621529094
H           1.72212263610811   -0.23745087075017   -0.57159722212713
H           3.05709299267870   -1.14653490460334   -1.17286290055189
