    23
        -45.37303907  Gyration_radius:  2.3771671803 Dipole_moment: 4.345
 S          -0.49498765142962   -0.89853765158481    0.38796896458375
O          -1.64866561709134   -1.92758671024919    0.38924464408781
O          -0.17406961701643   -0.59337098156999   -1.02535010628051
O          -0.96284455044796    0.31351873953882    1.06229848629873
O           0.63347889269663   -1.51039376763288    1.04573455964900
O           1.14727488680743    1.86467846884075    1.35158897207866
H           0.34269944531066    1.30495774148477    1.24951270027649
H           0.98267960076731    2.41626312469959    2.11836488524494
O           2.86777465837104   -0.15790093751036    1.19680423164162
H           2.43031704511741    0.70294761922329    1.37746229856879
H           2.15590123036107   -0.81135216316446    1.37928508482594
O          -2.08055109943855    1.35144569947511   -1.08984719166442
H          -1.72011647719386    1.22051728205322   -0.18973904542003
H          -1.45533043659622    0.86337365999202   -1.64018853638412
O          -3.71407776046462   -0.64308790301650   -0.53883607099642
H          -2.45637808578232   -1.49422880880168   -0.00285979981566
H          -4.24206778512597   -0.36840506901353    0.21381764194842
H          -3.25338790412040    0.17070696276223   -0.86667651959102
N           2.35287053897329   -0.35792113586941   -1.31371863897542
H           2.56600425461133    0.47350827218458   -1.85532192936125
H           1.26787274810148   -0.48043624238284   -1.22921163127544
H           2.75393753114202   -1.18304348333775   -1.74700459830012
H           2.70166615245008   -0.25565274612554   -0.27332840113833
