    23
        -45.37303915  Gyration_radius:  2.37715776383 Dipole_moment: 4.348
 S          -0.51865531376162    0.55567728618010   -0.79188034731343
O           0.94450415209094    0.42604420664721   -0.60313518310317
O          -0.76518037954867    0.90304961752192   -2.27795056949364
O          -1.16987735950359   -0.72412344528751   -0.50754351736113
O          -1.04024987129669    1.64216189105834    0.00063913051374
O          -1.03186553873637   -1.06663202828789    2.10141060524010
H          -1.77549307065472   -1.61942273426498    2.34770695184606
H          -1.08986644704225   -0.96370183245170    1.12321907695667
O           0.85584277624118   -2.19751799643912   -1.33395316268170
H           1.46038525209778   -1.47655723507454   -1.11796354730891
H           0.01376495702426   -1.89715726328402   -0.93632430350525
O          -0.76043044228586    1.53189356051866    2.59950525680762
H          -0.94548284385459    0.56898990618724    2.66092750576405
H          -1.09217874280729    1.76516855485173    1.70364510053540
O          -0.07240139697754   -1.22803046661109   -3.60329597568237
H          -0.47030194059920    0.13000993604599   -2.83415922097612
H           0.37649552582740   -1.72374154065008   -2.87205784210939
H          -0.87521338240496   -1.71359740517077   -3.80443903651921
N           1.62466118083778    1.42635825475366    1.64652702310063
H           2.05825178027073    2.33640881545929    1.53104743680083
H           0.65780143377831    1.51859089837351    2.16742583920349
H           1.36983444392932    1.01554638378837    0.66390583749823
H           2.24565522736368    0.79058263612822    2.13674294178274
