    23
        -45.37141683  Gyration_radius:  2.27787174903 Dipole_moment: 7.145
 S          -0.51489756187589   -0.42902153849770    1.16030141929693
O          -0.07416895057477    0.88017846165739    0.67519501878157
O           0.18096252381270   -0.78342803457310    2.39892341882298
O          -1.94405622843427   -0.55621766560031    1.19732316953076
O           0.07352842324773   -1.49152085933492    0.14139470445437
O          -1.94811728063995    2.65145683235514   -0.08113644484743
H          -1.18618109586619    2.11934900881128    0.22170490740486
H          -2.53310191618069    2.72226132098157    0.67542606746845
O          -2.48746492816861    0.29503930237347   -1.29385102025610
H          -2.43144339526939    1.25323526051571   -1.10639071263731
H          -2.46331290913714   -0.11762572068125   -0.40806437679383
O           2.05400466945742    0.49796797440497   -0.73660042353985
H           1.27584997626616    0.86852420967790   -0.25258347874742
H           1.66560403232845    0.12295636721511   -1.53560537958698
O          -0.25259305176687   -0.55275019041007   -2.25934929051568
H          -0.48526882054210   -1.20663088826397   -2.92137958952524
H          -1.12378681437833   -0.12189591556100   -1.99234406632162
H          -0.07613174859090   -1.17712243781170   -0.78968758757453
N           2.48957414190839   -1.00251255554051    1.38586363163380
H           2.40516827664911   -0.44533280386963    0.47328727780956
H           1.50214459166368   -0.90230167694515    1.90242483559161
H           2.63459543912450   -1.98626664753386    1.17872729836102
H           3.23909263696784   -0.63834181337493    1.96642063119450
