    23
        -45.36528554  Gyration_radius:  2.38278657359 Dipole_moment: 3.484
 S          -1.05910654800849    0.21722163188641    0.31013174540961
O          -1.22434411657905   -0.41975796647981   -0.98439281582723
O          -0.71995030559478    1.62445514683971    0.21334549691403
O          -2.40393179554581    0.06763435406324    1.07115038787410
O          -0.04791028828522   -0.50257806565126    1.11931784060164
O          -0.12944699547611   -2.66478473992567   -1.69102345825622
H          -0.63930238460672   -1.82940887373446   -1.53431408993514
H          -0.67956519620577   -3.37929808652845   -1.36478939073831
O           2.62487776633303    0.24151666696300   -1.43507547221657
H           3.09448259011211    0.87769011947563   -0.89283033306171
H           1.82725931818144    0.72363459857365   -1.79742160592818
O           0.44522839352427    1.48263911444155   -2.15133289198195
H          -0.16912007706323    0.84064857769476   -2.52112970668521
H           0.04088328541151    1.72033485446828   -1.28938966856115
O           1.66331490092544   -1.72239680535505   -0.14498641917803
H           0.93388984352648   -1.19931956670894    0.47672934771592
H           1.07179614784847   -2.22504474613568   -0.80854849100529
H           2.12783795932714   -0.97349203246007   -0.68130010295171
N          -1.34327084984485    1.49745916950961    2.97051258512678
H          -0.92215842250578    1.97664568246459    2.17870872217574
H          -1.63206810551252    2.18117632035767    3.65848287217562
H          -2.22527078108597    0.56262406030861    1.91884587975006
H          -0.63412437616492    0.90240059283911    3.37930957150477
