    23
        -45.37141684  Gyration_radius:  2.27788071905 Dipole_moment: 7.147
 S          -0.59328848637789    0.95516027225240   -0.72823259726735
O          -1.36076179427524    1.91562251143560    0.01241730438608
O           0.76183803318723    0.78384184663150   -0.20123807186149
O          -1.28872693768887   -0.46469489010129   -0.61141684208483
O          -0.56343378122308    1.15650944975545   -2.17827747903489
O          -0.90447319897373    0.97116156076731    2.48739555991466
H          -0.02367145816160    1.37830211021667    2.60901296796311
H          -1.24188160501743    1.38560230811868    1.66892269128268
O           1.46087857948068    2.18240499103726    1.98448747501463
H           1.26993442848700    3.09462713992207    1.75865475947594
H           1.34400760479460    1.67449182647922    1.15757972763107
O           1.36844839912609   -1.71437924509000   -0.44459256239555
H           0.84071935824901   -2.09016916067629    0.26966865996397
H           1.35092350577505   -0.74350733131692   -0.25960363603195
O          -0.65341293106519   -1.47025383706028    1.69866213462035
H          -0.66427545387874   -0.55500115435940    2.12070566017169
H          -1.35459452698685   -1.95881997002211    2.13410397426032
H          -1.09717285058840   -0.85567514440914    0.28222558302965
N           0.27943079046170   -1.15300558007796   -2.77793820622925
H           0.95889561112759   -1.16895571402487   -3.53260499087890
H          -0.07364169120676   -0.10934079877144   -2.58301653108701
H          -0.53233687665625   -1.71903188423489   -3.00681316426901
H           0.71659527141489   -1.49488929649371   -1.86010241657203
