    23
        -45.37141685  Gyration_radius:  2.27783595026 Dipole_moment: 7.148
 S          -0.61119683501925   -1.08273274236008   -0.49857722090009
O          -1.25743419069667   -0.34053251496563    0.74429302476491
O           0.73729954414166   -0.53052380327354   -0.64030673479487
O          -0.55672400330051   -2.46761554862917   -0.02627261747302
O          -1.42888908266212   -0.85735220117560   -1.65646439941716
O          -0.99307546551575    1.77905984097569   -1.94859906652478
H          -1.32734260842472    0.86060666557767   -1.93521425068245
H          -0.13034548814847    1.70673752261699   -2.40344007673765
O           1.43871365858670    0.38141462785810    1.67148489222699
H           1.38218126224245    0.10858857792569    0.72304896377887
H           0.90906574995333    1.18644852887355    1.70715872985704
O           1.33700820048893    0.79111323487281   -2.90200486537630
H           1.25700321680978    0.28207579865863   -2.07140313254614
H           1.11705014093340    0.17757288870311   -3.60543094412032
O          -0.63754374771684    2.17683462620411    0.57338987231766
H          -1.33007723996695    2.78346120782040    0.84236346467461
H          -1.07173674547384    0.63410867354014    0.68231913524635
H          -0.69046929629958    2.14066381366861   -0.43256105196437
N           0.38237897092977   -1.95821143776258    2.26782921693493
H          -0.40304212673109   -1.91038422941383    2.91014219186062
H           0.81092257269353   -0.98318470156885    2.14081165970723
H           1.07874705252249   -2.62205873874585    2.59311769404038
H          -0.01249351934626   -2.25609009940231    1.26431551512057
