    23
        -45.37141683  Gyration_radius:  2.27786799974 Dipole_moment: 7.146
 S          -0.61091878174551   -0.13551702993592    1.18467574183379
O          -0.79810335760481   -1.48464664610687    1.63724983433153
O           0.77061917000675    0.14342591415716    0.78837578341134
O          -1.49232055250952    0.10312152287600   -0.11128699666412
O          -1.11184055787929    0.90547223214905    2.08438511005221
O           2.55689079323370   -1.86034344819765    0.91353297139905
H           2.01752209880592   -1.04562148199796    0.88603979909668
H           2.49407965426705   -2.18365652436977    1.81416555074445
O           0.67860196360648    1.73071774885827   -1.24637369899943
H           0.94510712076294    1.14200487088352   -0.49833742197482
H           0.40712193002478    1.11253666600760   -1.93488542203795
O           0.37981847788283   -2.76292236758465   -0.41318254525655
H           1.30261011073932   -2.64535184521126   -0.11147674464189
H          -0.15446521832600   -2.46999018848246    0.35117000222047
O          -0.23198441430085   -0.93977872743930   -2.13001671993834
H          -1.05358336741797   -0.32375121715564   -0.89451585107208
H           0.12152185028380   -1.68340794187582   -1.54866483418518
H          -0.79251583365324   -1.36958630983636   -2.77889316619492
N          -1.09235107040770    2.78853211288390    0.39389721807496
H          -1.10623707402259    2.00881102887611    1.19617241918046
H          -2.02981926587606    2.85623903380849    0.00879996492702
H          -0.78579182831240    3.68275554112100    0.76514144306592
H          -0.41396183756385    2.43095705656375   -0.35597243737195
