    23
        -45.37276226  Gyration_radius:  2.37692987886 Dipole_moment: 7.395
 S           0.76350218894247   -0.22312654550680    0.47085585061066
O           1.37290719078914   -1.38396601029635   -0.12472088764904
O           1.70214895757328    0.62630975013192    1.21535661556568
O           0.25232978982019    0.73011659833992   -0.66491384376304
O          -0.40346204313855   -0.55197395430525    1.29036594694073
O           1.41361156387417   -1.88015864550019   -2.73764940929083
H           2.21007652596779   -1.49033916536810   -3.09993308670999
H           1.48422789192485   -1.78679169612979   -1.76441018594893
O          -1.63987483036738    1.41960814524644    2.42563386096827
H          -1.28078790306084    0.60511297208387    1.98148192568409
H          -1.67532082261319    1.20730997689967    3.36008147172186
O          -1.29097489426988   -2.49991829038085   -0.30263766400356
H          -1.07948265536827   -1.84983566045899    0.39413769798389
H          -0.48563473955719   -3.01270918713595   -0.41440360839630
O          -0.99128804729454   -0.74570128395336   -2.28691394174056
H          -0.22784548581020   -1.17037022039477   -2.72638155524911
H          -1.32709324655463   -1.42925602965104   -1.66145863017183
H          -0.28839078674110    0.17538118922491   -1.34912650361055
N           0.29664100145684    2.70519001754747    1.20545220797268
H           1.01862849469886    1.84778807759859    1.26969548994903
H           0.02910695375700    2.73191206574923    0.22200210700452
H          -0.53680740153698    2.38694807937704    1.77742930232422
H           0.68378231750580    3.58846980687897    1.52005685980600
