    23
        -45.36881892  Gyration_radius:  2.48764960311 Dipole_moment: 3.944
 S           0.35076001848944   -0.11755473791711    0.36434545153516
O           0.45599587247046   -0.99102272233268   -0.80069141796675
O           0.74476905507495   -0.96836866274918    1.61901274939882
O           1.28577175330587    1.00461689025252    0.28014131044114
O          -1.00865134918122    0.33882769371103    0.58796150094128
O          -1.15684376017805    0.42229072163575   -2.30594669633777
H          -0.53393054638458   -0.21331867711505   -1.88133748469467
H          -1.96124067255282    0.34785115468042   -1.78438270384501
O          -0.13568310060816   -3.70730333161082    1.60259284023002
H          -0.25172228923588   -2.75068102918416    1.66330622885183
H          -0.16279047330504   -4.04474734030676    2.49992377903863
O          -1.69320976257209    2.87539025204064    0.65404522437835
H          -1.44871542692396    3.21179906255928    1.51771223692505
H          -1.55853049933738    1.89788978588386    0.70252931234530
O           2.15913232621229   -2.69104255824636    0.32776754193940
H           1.57389143522647   -3.42350845128550    0.57478747693937
H           1.70998538820392   -2.24058839533511   -0.41014693442039
H           1.47206809883574   -1.56416465245461    1.28118030008711
N           0.04278244304291    2.56249531245998   -1.32814010064883
H           0.71028254665737    1.99911622060125   -0.69522881492404
H          -0.65872236483736    2.97621822286605   -0.66983387786449
H           0.51825407241167    3.25349720649427   -1.89721989554099
H          -0.45365275481860    1.82230804535775   -1.90237802680706
