    23
        -45.36881911  Gyration_radius:  2.48797089924 Dipole_moment: 3.944
 S          -0.23785691706725   -0.30004097018489   -0.34945001419849
O          -0.15970575976841   -0.53315073401194    1.08088797111853
O          -1.41663539232363    0.49290195944955   -0.69947328619469
O           0.98505858261443    0.29522344742017   -0.88002260313528
O          -0.39765062207078   -1.70645809080332   -1.01993268470840
O           1.33131136565028    1.95214052059226    1.12015087538381
H           1.43753308435798    1.31521522822336    1.83263173881586
H           1.34669890511884    1.40322752465199    0.30118825122485
O           2.03578469211739   -3.18388828820401   -1.43725689711334
H           1.32705771544803   -2.79693348672548   -0.90792190517550
H           1.83384614992186   -4.11714704627422   -1.52598210809686
O          -1.84578399590908    0.49896173511854    2.81231094494192
H          -1.18282476017444    0.01307271562756    2.26416920771826
H          -2.64412869344280   -0.03059519036219    2.77946778646222
O           1.01381459935838   -1.15968260372823   -3.10415160135456
H           1.67370223766579   -1.83688441386592   -2.88960194896344
H          -0.06023422395487   -1.56423929756893   -1.94942541035047
H           1.23248941471575   -0.39848418754422   -2.53676443714079
N          -1.27374729009866    2.37791856555464    1.02813566535992
H          -1.43851998891821    1.69423131825982    0.21017875971742
H          -0.21848178299793    2.41684699501980    1.12252760213582
H          -1.69272079013958    3.28882804414868    0.87948565592812
H          -1.64900656011971    1.87893621520091    1.86884843762529
