    23
        -45.37704116  Gyration_radius:  2.43352858433 Dipole_moment: 5.262
 S           0.42950738781721   -0.63870345113673    0.40804188620504
O           1.59884462253163    0.13749913510901    0.01135460400652
O          -0.60620094797413   -0.58878492499787   -0.64186725606351
O           0.72283532573773   -1.97701776282597    0.83663115732807
O          -0.18115463257610    0.16183252601316    1.62027974986024
O           2.24238384965325    0.87750833988119   -2.44827893774090
H           2.13267858770154    0.44479038491429   -1.57231754226182
H           3.03913681149117    1.40690034431878   -2.37984526011362
O          -1.21824563837809   -3.44171776504222    1.87496782920923
H          -0.89723099280652   -3.74350805288667    2.72639091385102
H          -0.44765957696911   -3.02550078929757    1.42946716759653
O           0.68847562418662    2.57354152439902    0.45575290219489
H           0.15525426386051    2.48067269302550    1.24964903871492
H           1.19525120617619    1.73153565298505    0.40754780163049
O          -2.39542262299263   -1.10169870388403    1.34182915718559
H          -2.15349099599702   -1.08408942611226    0.40436507518133
H          -2.18656047045148   -2.01433475811386    1.63729394327851
H          -1.08477566763026   -0.25557357423681    1.71032006686368
N          -0.23364480830267    1.64036485984371   -1.84443333382239
H          -0.95824818464825    2.00629452683860   -2.45136979360936
H          -0.02674266667618    2.25306180953928   -1.01570178851610
H          -0.48946074161329    0.67673422226083   -1.41889122716243
H           0.67447027782809    1.48019316937210   -2.34118614381340
