    23
        -45.37276217  Gyration_radius:  2.37690861324 Dipole_moment: 7.395
 S          -0.66788473148146    0.00044859996318   -0.63842220985402
O          -1.31024351775683   -1.11793856256189   -1.34086048527496
O          -0.29153823722132   -0.62614862961940    0.74923439819753
O           0.59441951291500    0.36411926280472   -1.28335724062090
O          -1.53362625985247    1.13164707778524   -0.42730938437471
O          -2.19199998798615    2.08677463626213    1.96619773557362
H          -2.04162201373728    1.80490749184748    1.03949234924187
H          -2.99051026819688    1.64192807616927    2.25265729087317
O           0.86575012807456    2.69427417664145   -0.01182653788192
H          -0.00399440795740    3.07536525636910   -0.16121543202475
H           0.89261406972703    1.90048312656727   -0.57924811154033
O           2.28469048755934   -1.54653783774060   -1.72657877745042
H           2.48806581290234   -1.50833230922435   -2.66289456647203
H           1.73858769395137   -0.73626583811766   -1.53995471187795
O           0.37942750664678    1.31225561220885    2.21475130228021
H           0.74943963033060    1.91518059474672    1.52865612835040
H          -0.50803409718120    1.67553946908271    2.40642991976654
H           0.01588734035484    0.12857034120619    1.38495483055534
N           0.31587519651775   -2.89163249702068   -0.62863177512803
H           1.20351431965169   -2.54890782947003   -1.09533632995836
H          -0.48000848097025   -2.19552194682543   -1.00582748036674
H           0.12081194669995   -3.87043718315529   -0.81015214902139
H           0.37037837700820   -2.68977108792097    0.36924122701145
