    23
        -45.36780542  Gyration_radius:  2.39314572746 Dipole_moment: 5.929
 S          -1.04012395810954    0.12336488163165   -0.62366242733149
O          -1.02108073277871   -0.70748806215773   -1.79303265199596
O          -0.73597354210064   -0.62535753562455    0.61251368058318
O           0.12801931177703    1.18888547205007   -0.74390770432711
O          -2.23163944853827    0.94098302943657   -0.44346896329668
O           1.19317857457093   -2.20759329328541   -1.94591062569358
H           0.33828379784520   -1.75758219410012   -2.09460612713557
H           1.04786013512047   -2.72814081715474   -1.13184280544493
O           0.60057076150499    2.83958422851473    1.35801701876349
H           1.49774467906758    2.63402840704626    1.62849218590968
H           0.48234338627820    2.42873586573744    0.47930530651003
O           0.17933917170276   -3.14028116276568    0.39016717563247
H          -0.12672311977756   -2.22352154677713    0.54149241278338
H          -0.60699617758455   -3.64832940739189    0.18276637448438
O           2.32920776666456    0.00864066593303   -1.27565647951820
H           2.00368512571667   -0.91685390605957   -1.50730580596590
H           2.69246766007498    0.36268772777335   -2.09014419258176
H           0.99633815057872    0.70828092784276   -0.95068541111004
N          -1.56063202181079    1.37116075345107    1.94282630009572
H          -1.13076289553598    0.41831373919533    1.76339543159225
H          -2.18013744264375    1.41235128364134    2.74421496639692
H          -0.79545598912313    2.07902607505361    1.97103070020599
H          -2.05951320289560    1.43910486799981    0.98600165143388
