    23
        -45.36780541  Gyration_radius:  2.39311838913 Dipole_moment: 5.927
 S          -0.14802244705710   -0.99259307233574   -0.69176575599025
O          -1.37612299912778   -1.65426645936362   -0.35700808786911
O           0.65944550079413   -1.63258323233343   -1.72088919291368
O          -0.33765226569475    0.43917237778867   -1.00051144491566
O           0.79478134051747   -1.00567443248973    0.58309040024872
O          -2.72201453604328    1.55498298804955   -0.46882430037824
H          -1.82447897348733    1.21836506895546   -0.66433288772438
H          -3.27984382821643    1.24506541971433   -1.18449894839297
O           3.15238821349523    0.33340597934794    0.46755590255347
H           3.08261744039279    1.00313708722994    1.15086778502127
H           2.42365649280043   -0.29673531511092    0.63104481009480
O          -2.78622332394059   -0.32008415712140    1.48929094338590
H          -2.44313009331732   -0.96097856335612    0.83586449083640
H          -2.94045918083463    0.49088748433011    0.96647368639316
O          -0.47321448470981   -0.11033053971857    2.61070001201273
H          -0.46919634791272   -0.77089214244547    3.30663756413501
H           0.28200651825861   -0.64438993598192    1.37948596369099
H          -1.41810278039907   -0.09648292416146    2.25977346043864
N           2.01393014959921    0.47488095590294   -1.95174312963005
H           1.68837413816743   -0.55312629043982   -2.03163862763889
H           2.36405516982405    0.87364738087949   -2.81551734111501
H           1.07385550852606    0.85272722634399   -1.63809603398933
H           2.68335079837022    0.55186511631503   -1.15595924825052
