    23
        -45.37704120  Gyration_radius:  2.43353273441 Dipole_moment: 5.263
 S           0.71210064610854    0.48695077513399    0.12139359523341
O           0.56985324171055    0.73287577032652   -1.30916303723234
O          -0.61217062118143    0.40368378165408    0.76714685980583
O           1.30162713345621   -0.97158143834944    0.21292193214615
O           1.60267353803399    1.39042071716166    0.79333668868698
O           2.22499642637358    0.92933057257711    3.32157766859311
H           3.18266840406481    0.91099381485596    3.36038248857434
H           1.99873492883509    1.24558166764311    2.41921402626757
O          -1.56644135488581    1.69927427906127   -2.53977424649566
H          -1.36699201255391    1.70706838541566   -3.47782246710949
H          -0.70966380144052    1.53805234733020   -2.08542610348929
O          -0.12012530470326   -1.68420234376973   -2.11045228208262
H           0.28297155063279   -0.79786980712348   -1.96898263681124
H           0.40269007984666   -2.27012028021516   -1.55675605417900
O           0.60737088375162   -1.09944568776807    2.67836447942937
H          -0.12795743144424   -0.54480748391127    2.37953355684988
H           1.16717462900165   -1.18963887390074    1.17892345508264
H           1.22068311889848   -0.48022396118230    3.13019434326475
N          -2.19932528978973   -0.42186057905643   -1.06405930996074
H          -1.58064742858212   -1.13862477205767   -1.52069234471077
H          -2.24473648464483    0.40041052470477   -1.71120606519623
H          -3.11396321902080   -0.77595701370784   -0.80843487394265
H          -1.63152160248572   -0.07031038484174   -0.21021966272764
