    23
        -45.36881871  Gyration_radius:  2.48735362738 Dipole_moment: 3.945
 S          -0.14635859688400    0.31166375368329    0.38964416398003
O          -0.81634127299968    0.46875222228851    1.79662571517950
O          -1.21891071398469    0.10935756863437   -0.57987038597547
O           0.60020077899660    1.53984452239267    0.11598601843406
O           0.73569828704211   -0.83726294067010    0.48087746554268
O           3.32289673186492   -0.71769144508697    0.03496297445786
H           2.37936893212409   -0.88451305722770    0.27563245566153
H           3.72909733519206   -0.35463720510571    0.82366389742768
O           0.29861925159598   -1.04643600191460   -2.37620265075398
H           0.57465757079722   -1.81786422804330   -1.87286852653679
H          -0.40151235773320   -0.63236788812314   -1.81893502127091
O          -3.10287017948397   -1.20694607745474    2.28623192565870
H          -2.16378856418259   -1.02401845312460    2.15599071704369
H          -3.23492074316929   -1.30550655630974    3.23097795517432
O          -3.10515130351374    1.24677428572915    0.90747373772601
H          -1.65973387998475    0.96786806776153    1.60242636906267
H          -2.69146150529042    0.93365111243090    0.08284454797681
H          -3.56051678541483    0.47366579447958    1.27491337126598
N           2.12028866182235    0.77668330308149   -1.79850279994904
H           1.46942760286702    0.06094130649311   -2.23218665105407
H           2.51042135421205    1.42085317548029   -2.47691604586280
H           1.51428585510103    1.26183391817560   -1.04948760127478
H           2.84660354102351    0.25535480243104   -1.25328165191156
