    23
        -45.36780541  Gyration_radius:  2.39311723192 Dipole_moment: 5.930
 S          -0.69356125391148    0.27429347761984   -0.96438219968388
O          -0.48393154257609   -1.22617211204354   -0.49638520974199
O          -0.28935955544353    1.08789857249258    0.20002650703577
O           0.12721802442468    0.51091896074588   -2.11696391053814
O          -2.13115174945476    0.36868529328380   -1.17686462700961
O          -1.68629233109193   -2.05234769661214    1.79238130183594
H          -1.30253634405115   -1.96441149233598    0.89802799008265
H          -0.96137551680041   -2.30227317792797    2.36886415182571
O           2.03328268632064    2.43046386861365    0.07586191330708
H           1.19011952784091    1.94910568267815    0.19623405379346
H           1.82756096149904    3.18481226786333   -0.47919544454436
O           2.74306764719728    0.38200164760480   -1.55345108595087
H           2.77262357307886    1.13026652808376   -0.92573644797533
H           1.86480129693445    0.46156840093850   -1.97506196613988
O           2.00954779336855   -1.71747157883386   -0.24747468744862
H           2.41363375852527   -0.90702884145903   -0.69028234477352
H           0.50855355517697   -1.40741890316442   -0.39720083269542
H           2.24631919966175   -2.45925403208671   -0.80819415848458
N          -2.48085379673318    0.45929977135311    1.31292160514840
H          -2.66199347641124    0.36631452883990    0.25100819309195
H          -1.51704154783218    0.89020526170207    1.21207936225699
H          -3.15340915514701    1.03616268323850    1.80550894595329
H          -2.37522176457536   -0.49561912059487    1.71827890065346
