    23
        -45.37704129  Gyration_radius:  2.43366314294 Dipole_moment: 5.265
 S          -0.61471916093437   -0.50958091736282    0.34735053162800
O          -1.36969584841012   -1.70878485231660    0.57717378418613
O          -1.42133335243305    0.70160087387697    0.24989928355419
O           0.32748801137095   -0.25596332396701    1.58477579252895
O           0.29594484861722   -0.62013215502580   -0.80853336161382
O          -1.88138285353478    2.11947406449642   -1.93869284730919
H          -1.89210424266527    1.50404887999375   -1.17208010890133
H          -2.41086201241105    2.87435471409863   -1.67490941940268
O           0.37428006449120    2.49292378607915    0.97646671355967
H          -0.41732763441734    1.92153820370856    0.85418388453018
H           0.87889839931418    2.04972223037975    1.66360620412440
O          -0.07692532995789   -3.96024354407288    1.07856911274262
H          -0.43563654092737   -4.29484153119088    1.90220423189706
H          -0.65547183473622   -3.20971377004631    0.81870177347395
O           1.86930977390754   -2.14902405806241    0.79987131979777
H           1.00658912805233   -0.98171459580600    1.48020325471511
H           1.34593305138593   -2.96409795219084    0.95994842501943
H           1.59686857509622   -1.84933624530030   -0.07970720655082
N           0.73012224288437    1.79088797710912   -1.55185560197300
H           1.50159015467247    1.98776464662601   -2.17905670573210
H           0.62428433841904    0.73398879040291   -1.33527869724576
H           0.82262808551733    2.24950931877439   -0.61050962595182
H          -0.19847789327189    2.07761944979028   -1.94233072707717
