    23
        -45.37580226  Gyration_radius:  2.3362175999 Dipole_moment: 5.557
 S           1.00513458000592    0.21627898079442   -0.54963285654744
O           1.94411981493438    0.32645787565142    0.55886886977963
O           0.94279843145236   -1.32337465425726   -0.86414545883100
O          -0.35870031664770    0.56947381275096   -0.10179345444165
O           1.39334768806535    0.91533889407626   -1.74373278216390
O          -0.86875232289082    1.93936023104929    2.10795347067629
H          -1.82313630351767    2.00838868953784    2.16867828507730
H          -0.67789700753987    1.58119812356413    1.21146568577036
O          -1.03717698793710    1.15380578703135   -2.71221141751066
H          -0.08644366008828    1.30385982136845   -2.53070835576177
H          -1.42534951159004    1.12717831358809   -1.83074304083890
O          -0.89557520101820   -1.63527953553973    1.25011217946886
H          -0.86556254409054   -0.83144269580964    0.68332388849094
H          -0.45646798015366   -2.31104230290459    0.72613366314089
O          -0.30010094890640   -1.34392828052592   -3.13345623376539
H           0.47379969177102   -1.40551063352241   -1.74250198574093
H          -0.72917677066490   -0.45042804393914   -3.08739554922348
H           0.36345908902523   -1.27593384426015   -3.82370096452847
N           0.69046724889968   -0.12507672928994    2.73254633796421
H           1.20761715248914   -0.33547349263504    3.57810006888974
H           0.10215146096623    0.73398427165853    2.81362855979221
H           1.33743515092566    0.06642707851299    1.87767398018733
H           0.06400926647110   -0.90426166688625    2.41153711010879
