    23
        -45.37188953  Gyration_radius:  2.38304603747 Dipole_moment: 5.539
 S          -0.24574051795466    0.58720171606178    0.64123336569568
O          -1.13428044699017    1.21792894307005   -0.35235042247854
O          -0.65151519316764    0.85183293125257    1.99514654560891
O          -0.10733834587421   -0.83847500434983    0.34723139699285
O           1.15437525467247    1.24133079336189    0.38572299676575
O           0.61932374385495    1.09429223513050   -2.39076502258796
H           1.47459506596764    1.38145482418269   -2.06290305473386
H          -0.00641006123611    1.30828104722082   -1.67239266991116
O           0.97821808032114    0.00407059555041    3.89179704689187
H           0.26623253084895    0.28495294665331    3.27473612416424
H           1.18081660156815    0.77401352756785    4.42582901780061
O          -0.02998468525315   -1.49207099758112   -2.18203862634692
H           0.38848955652914   -0.66440848649457   -2.50402671031273
H           0.09081829852128   -1.44620534746448   -1.20311613336423
O           2.27175610332197   -0.67877689625929    1.65382057886103
H           1.55768092710901   -1.20990168645903    1.27172103570296
H           1.76443869108065    0.61470354327116    0.87355498004379
H           1.99907246007288   -0.52228531434399    2.58414918886303
N          -2.35896989842407   -0.50995032858333   -1.81187337008672
H          -2.98635369889318   -1.11393765528337   -1.29125147749768
H          -1.95841646965792    0.25603755416820   -1.15997905386712
H          -1.43806467701202   -1.05067847774516   -2.10704210067300
H          -2.82874332941594   -0.08941044289354   -2.60720361551218
