    23
        -45.37188955  Gyration_radius:  2.38314487061 Dipole_moment: 5.539
 S           0.70774052512486   -0.55901502131123   -0.04905660021205
O           1.31769998306612   -1.82245005186416    0.26624573853262
O          -0.68509982080331   -0.46507489256338    0.38585988528837
O           1.48887306432946    0.58661390607004    0.67953543877600
O           0.80771604912045   -0.22075748529655   -1.48092526960440
O          -2.09892147108728    1.45850147260806   -0.67776583764954
H          -1.35897913370780    2.09087941985665   -0.80516034106368
H          -1.71650276147184    0.77306722609016   -0.07874603191135
O           0.35259160929315    2.41301641615353   -1.16194477246966
H           0.66966875477532    1.50647477960062   -1.33822894722926
H           0.88231422875429    2.71699796452183   -0.42136843421151
O           1.44826285291629   -2.45257073769576    2.82717454093519
H           1.37728837447236   -2.35656935370900    1.85127192969710
H           2.37343637531272   -2.62825052834283    3.00664548034928
O           0.32386628577997   -0.02739499978906    2.87265898950106
H           1.17756568342671    0.47643824692545    1.62489154441874
H          -0.42401714378579   -0.24174118396729    2.29588432010332
H           0.72154287538662   -0.89540606237736    3.10252662497466
N          -1.49425460770119   -0.08606336625900   -2.62058118087070
H          -0.49830751135125   -0.23535107445670   -2.22339608936777
H          -2.00032633352988   -0.96549354207311   -2.62451347450001
H          -1.92294836101670    0.61760751312256   -1.87984455319436
H          -1.44920953733240    0.31654134476757   -3.55116295030324
