    23
        -45.37188963  Gyration_radius:  2.38299914942 Dipole_moment: 5.536
 S          -0.87111636045309    0.17516654078312    0.15963596498940
O          -2.10542665047003    0.80133599094076   -0.23055984360412
O           0.19147531528905    0.32318751531993   -0.83392433326717
O          -0.35244768532624    0.83751723050509    1.48072894384484
O          -1.03946331409616   -1.24909208530484    0.50246363171931
O           1.25099935818664   -1.45800004251259    1.90046550601055
H           0.34361988675403   -1.42134504228131    1.54152772010073
H           1.31743502330609   -0.69158329082624    2.47463368451169
O          -2.02020916676389    3.41046393119459   -0.62759667571637
H          -2.69315210383170    3.78365421307351   -0.05578042729874
H          -2.14445060182097    2.43594597870771   -0.58778652907814
O           2.23597105153999   -1.28453640637937   -0.58001207974674
H           2.19347683961973   -1.37524870493577    0.39663267750807
H           1.63864473180129   -0.52088791129893   -0.76737291343384
O           0.47978391264620    2.84737616358899    0.13506088208107
H          -0.35123027829781    3.28669404542104   -0.14910463750021
H          -0.00213112819695    1.71384123082207    1.14563353171157
H           0.65748215681255    2.18542351952012   -0.54920957739738
N           0.24636164703320   -2.80087125474885   -1.09610236765344
H           0.28228064146016   -3.76070090270276   -0.76823981603507
H          -0.07340763158625   -2.75233069392459   -2.05780272573421
H          -0.40012411740129   -2.20767516861744   -0.46207953057186
H           1.21562847383171   -2.27833483635087   -0.97121106545542
