    23
        -45.37188964  Gyration_radius:  2.38314137277 Dipole_moment: 5.535
 S           0.04602090522108   -0.90015756578910   -0.04508279563884
O           0.18257751361773   -2.10034965737225   -0.82532182474059
O           1.29704278039376   -0.74458676718126    0.88452474367946
O          -0.03067657123677    0.31244636966372   -0.85858360663922
O          -1.09884597267078   -0.95239841695579    0.88287173005267
O          -0.22543898357019    1.02147518012742    2.49102018647283
H           0.70826596165079    0.87451521053127    2.65863864839854
H          -0.52914353638912    0.20663659012046    2.04682500657296
O          -0.92887127011541    2.45244730641925    0.34340626657717
H          -0.45499938867523    1.81312943475643   -0.24109741751034
H          -0.60223349250467    2.22806767539021    1.24154547681741
O           2.33478398459739   -2.27087377532044   -2.34569109939239
H           1.46620492379936   -2.27561553497547   -1.88504724891085
H           2.77137328568971   -3.08517251047481   -2.09001491673150
O           2.66674218998952    0.07827541695852   -1.11298122399427
H           1.99868665842576   -0.44845223367967    0.23417918731294
H           2.76553332092938   -0.72821600237913   -1.66456120973827
H           1.82793214497009    0.47143494663438   -1.39532741058537
N          -2.88720125265989    0.81208723074127    0.33165159394938
H          -3.31717082965979    0.68675755075828   -0.57879023370678
H          -2.22461950320999   -0.01743566348804    0.54389114411969
H          -2.17799954941473    1.66328832506649    0.32377010058835
H          -3.58796329917561    0.90269687043258    1.06017490304741
