    23
        -45.37276216  Gyration_radius:  2.37692811338 Dipole_moment: 7.398
 S           0.25120815816161   -0.37246087100466    0.80741538766062
O           0.80184833675752   -0.05408546701994   -0.62625107044253
O          -0.17481228316732   -1.74717509787041    0.85577583066558
O           1.39861968035559   -0.07388430169255    1.67411495268800
O          -0.84229040040207    0.56975912117413    1.04830393017480
O          -2.68819925333033   -0.84663978283972   -0.25846059440837
H          -2.55648433394060   -1.71164674459675    0.13957414514163
H          -2.14698958653907   -0.23807505443864    0.27959156817040
O          -0.26154308256809    3.09226592287206    0.98120572573338
H          -0.56395511911887    3.45602086094602    1.81533528004241
H          -0.60074704348769    2.15733296521364    0.96032972498384
O          -0.19143954936105   -3.38358157359843   -1.24111926663433
H          -0.20097882877220   -2.88254078007457   -0.39864494158787
H           0.65756194374547   -3.82578485757054   -1.27706336974360
O          -0.90444086796564   -0.97999010252644   -2.23457845738342
H           0.12367848370204   -0.39391337562109   -1.32827646795822
H          -0.68982035911198   -1.93093273505339   -2.15672511316581
H          -1.71914550676519   -0.86599863292810   -1.69193272947118
N           2.10035143495147    2.04240136229332    0.52241151011836
H           1.89328974756474    1.11121516057942    1.11440146104428
H           2.07691061099010    1.73055338634973   -0.44799759999029
H           1.25726355390393    2.65855744062733    0.70353776166502
H           2.98011427439374    2.48860315678390    0.75905234269813
