    23
        -45.37467527  Gyration_radius:  2.35109996926 Dipole_moment: 4.960
 S           0.46411998040017    0.80621628332847   -0.55815889106879
O           0.95624521297442    0.91722224190693   -2.02011101020923
O           1.60494070890775    1.16633932097392    0.27432066282652
O          -0.67756620908326    1.68109639211173   -0.36043729116781
O           0.06875001202553   -0.59716075297856   -0.31881795172003
O          -1.02866192324948    0.12610059975584    1.98435638166924
H          -1.30834669389764    1.01560257478703    1.74561740547083
H          -0.77556593841219   -0.27286856176995    1.12567437501455
O           1.57061674455926   -2.36471713036162    0.92640730136620
H           1.08246264107623   -1.76109255144794    0.31724821746336
H           1.04611908539687   -3.16539874097098    0.98064498222921
O          -2.48813938214343    0.04276641128068   -1.32884616868709
H          -2.04876174908484   -0.76280990078635   -1.03903548434659
H          -1.97618168654629    0.76454050877657   -0.90138374623751
O          -1.15246981339608    0.64984936717969   -3.52028465344687
H          -1.42766335555779    1.53216573346858   -3.77855763306759
H           0.18837604477258    0.77604391966770   -2.64281506900377
H          -1.79277174639720    0.35360391961766   -2.82527595212857
N           1.56146454202692   -0.18573209037051    2.43789412757548
H           2.15430377258679    0.05686471169692    3.22303027566953
H           0.53840057967348   -0.06200366891538    2.62281792769253
H           1.72599215075936    0.44350621814102    1.56913660444063
H           1.71433702264573   -1.16013478511751    2.08657559967032
