    23
        -45.37273083  Gyration_radius:  2.32861042624 Dipole_moment: 6.074
 S          -0.36660215513128    0.81531488137978    0.18260928464857
O           0.33967655122680    1.53270854822693   -0.88454143348514
O          -0.65091410347241    1.88760574401918    1.26599098554650
O          -1.63395390675271    0.26096370304074   -0.26903035951637
O           0.50170851016840   -0.20639943146824    0.76453974172319
O          -0.51089994224249   -0.73384607252906   -2.46547020029452
H          -1.05816562422258   -0.45375218263893   -1.70472116358446
H          -0.33793560913215    0.07657701183541   -2.94901585613738
O          -1.67739130003865   -1.52936496537748    1.69857614633174
H          -0.71415713330814   -1.43971964610650    1.69287354977207
H          -1.93908661806223   -1.09311428352595    0.86770557692532
O           1.56156089339348   -1.74387800299914   -1.10099738992801
H           0.84343279619975   -1.61724908973192   -1.75801210783983
H           1.15072883027041   -1.44723110023876   -0.26070436027164
O          -2.23416256305966    0.71699147917257    2.96040107478308
H          -1.22967571642311    1.48759484056756    1.97570929107839
H          -3.13524169363791    0.93667740054321    2.71360670416314
H          -2.08699075891744   -0.21761446075717    2.66445824319059
N           2.68166380277842    0.56795011578604   -1.09110220682856
H           3.19533413494437    0.69376432752553   -0.22483793718318
H           3.21482935119989    0.90371917657904   -1.88608923575866
H           2.37361738248565   -0.47794495337912   -1.18805765078515
H           1.71262487169730    1.08024697005497   -1.00389071655589
