    23
        -45.37276217  Gyration_radius:  2.3769184253 Dipole_moment: 7.394
 S           0.56754911401490   -0.72463141781219   -0.07989576332332
O          -0.60142441465267   -0.95159189526648   -0.93056455519845
O           0.78626398270600   -1.86285234881184    0.82206284930873
O           1.73634388172779   -0.33935274984246   -0.82763129378461
O           0.18061290729090    0.43379573601612    0.90405247388330
O          -2.80235347884444   -1.63634544252397    0.24905340432952
H          -2.03175528278952   -1.31300466463460   -0.29062717880067
H          -3.08676019090240   -2.44959334572282   -0.17201427984040
O          -0.06073351084734    1.02821656221440   -2.63609960275860
H           0.85989968234397    0.83764627269881   -2.83654617179506
H          -0.37300590035539    0.25349582404798   -2.13112025133527
O           2.89343352330504    2.05059908014186   -0.67049620705337
H           3.55729449912292    2.01210606578402    0.01903330858380
H           2.57014474033791    1.13259406131285   -0.78736125315357
O           0.25041671689611    2.54731117693068   -0.46812521936932
H          -0.00498146883004    2.18038403199642   -1.34633839923784
H           0.17087676801638    1.32633018877308    0.38272420066125
H           1.21982064096999    2.66335480639737   -0.52415210389875
N          -1.18990879692970   -1.44747919106836    2.31192674354913
H          -1.98871292986206   -1.59121021324055    1.63041019322926
H          -0.27467599497886   -1.73250041198971    1.72757711026129
H          -1.07677642374718   -0.44814225320880    2.47937336786605
H          -1.30156805399726   -1.96912988220222    3.17475862787994
