    23
        -45.37273088  Gyration_radius:  2.32878807122 Dipole_moment: 6.073
 S           0.49008226584060    0.21090789344410    0.74004035548910
O           1.70707656114058   -0.48716342278133    0.31114589213093
O           0.55144905063261    0.20775100219346    2.28951009028506
O           0.45203038478259    1.59016966143746    0.27772056430063
O          -0.69443040098741   -0.53846392701716    0.32571384015445
O           1.16283023606480    0.87267133839193   -2.18286447929857
H           2.07684906905718    0.62435665631955   -2.02967027937721
H           0.87692145947202    1.28668185978640   -1.34406152999508
O          -0.60114454028691   -1.14238965857642   -2.24240265197668
H          -0.93641832526958   -0.87268859146251   -1.36056658256063
H          -0.02756034131717   -0.38970823492852   -2.50324824829939
O          -2.19380743891035    1.71653124936659    0.52798575526780
H          -2.17137333911245    0.75710766818352    0.40590198076577
H          -1.29686043332198    1.98840955232875    0.26210579547238
O          -1.38177657006350    1.77514325760043    3.03520894754641
H          -1.87125391495718    1.81036316282125    2.17390615219950
H          -0.19595280583140    0.76713440415810    2.64573658805968
H          -1.01109392792001    2.65040802288695    3.16788748815243
N           1.02960594491857   -2.61168214745679   -0.90777579933042
H           0.50766646567271   -3.22473792202579   -0.28985769332110
H           0.34537186792678   -2.13255250899795   -1.61521792021040
H           1.39138876591696   -1.75082214440970   -0.32725708501646
H           1.79039996655829   -3.10742715121571   -1.35994117041414
