    23
        -45.36280965  Gyration_radius:  2.42375424354 Dipole_moment: 5.907
 S          -1.01261230697592    0.23078068678823   -0.22832351936718
O          -0.33174182014908   -0.01165081857929   -1.47224609162833
O          -1.18837707591242   -0.91080709842628    0.62389946146724
O          -0.25570016105984    1.33139703344754    0.52751742847708
O          -2.38973828252307    0.85040591882927   -0.52319282922937
O           2.48951715689305   -0.45206327760232    2.02101624946427
H           3.15929798207041    0.22854442812491    1.94237691548350
H           2.32296153310537   -0.78003189063459    1.10318765326103
O           0.06948824771037   -3.21415117153067   -0.13045118255161
H          -0.34826353517321   -3.46274315876980   -0.95681452193716
H          -0.46609329880852   -2.49061658485535    0.23748889982030
O           1.91925165525113   -1.23018802191134   -0.45538039123149
H           1.50337041095850   -2.10363656189941   -0.32971647996312
H           1.25162843742469   -0.70865894457716   -0.92518137953102
O           0.09705080265191    0.30100624261041    2.76509314805012
H           1.03793138259920   -0.00015906488120    2.63364681498393
H          -0.10978503153221    1.01661105706606    1.51971970141005
H          -0.45303678670558   -0.46818838327404    2.57055476372075
N          -1.45281490867334    2.47841644110525   -2.26601327396357
H          -0.73793875874501    1.77930290636512   -2.44665244895320
H          -1.88998275308925    2.74655552705426   -3.13783065862956
H          -2.19912892803332    1.57886810054378   -1.22027396807229
H          -1.01528395127902    3.29100662501228   -1.85242432109032
