    23
        -45.36280967  Gyration_radius:  2.42373157081 Dipole_moment: 5.907
 S           0.69033734127502   -0.78137041992727   -0.20909191022133
O           0.38937143914659    0.14731095017952   -1.39330601330421
O           1.24314794286667    0.01175976715640    0.85630081063962
O          -0.47999056157773   -1.54495551435635    0.11900865648912
O           1.77560844346640   -1.73436500419161   -0.73957632411216
O          -2.74685038631055    1.64971862434564   -0.46979785448746
H          -2.15386569509865    1.57528214002224    0.31796545745024
H          -2.59693340211601    2.52342183216674   -0.83338522251297
O          -1.59405351287976   -1.09560087625089    2.57132402311197
H          -1.28851476130675   -1.39196819502744    1.69694778290121
H          -0.93115242782013   -1.38741465013599    3.19947935597511
O          -1.04414298687357    1.37893592132980    1.55276798233603
H          -1.42927165746075    0.65352512772466    2.07918063162317
H          -0.15492906647105    1.06874865975801    1.32581013284804
O          -1.98330465697389   -0.39524454092753   -1.91185424438501
H          -0.58492018808599   -0.05023221536278   -1.73470662232350
H          -2.01841397739626   -1.13479891474467   -1.29221999450255
H          -2.40863629595920    0.37252289293532   -1.43973735517524
N           3.57634641365639    0.08832081463520   -0.76800612082688
H           3.07093488296546    0.51531162036909    0.00315764102227
H           2.60804905067169   -1.14320218474581   -0.84199607049959
H           3.51190635921499    0.69540190425818   -1.57430731845741
H           4.54927768309821   -0.02110771919021   -0.51395742357987
