    23
        -45.38152955  Gyration_radius:  2.23400462888 Dipole_moment: 5.497
 S          -0.87776310519778   -1.08033819666904    0.55641467693092
O          -2.20251071845637   -1.37840415966284    0.08166050741154
O          -0.49469646978875   -2.10076264527706    1.65993128921778
O           0.13326522922898   -1.15358233590585   -0.50226743900472
O          -0.82059763648342    0.26383776137114    1.17970503111875
O          -2.03159965265129   -0.32991558214791   -2.29945446330009
H          -2.27211271985912   -0.80090264098752   -1.46488727508028
H          -1.27605129615145   -0.81779761216822   -2.63888277436810
O           1.48303134779420    1.05587984305569   -1.12226364054185
H           1.10820318370151    0.15298883825810   -1.02753923778329
H           1.87235253274403    1.24334774484665   -0.25685091088980
O           1.64588468977970    0.93501678110338    1.67598074829155
H           1.71426036433795    1.33728110117443    2.54296397708678
H           0.68938157702865    0.70591285574723    1.54946069323779
O           2.05377293188546   -1.74986352032055    1.27973950302929
H           2.17592589765080   -0.81483786452250    1.52465726836743
H           0.49821331771810   -2.09533892788261    1.69227110243538
H           1.74420315301726   -1.73159795710148    0.36148092573729
N          -1.04601074744120    1.71630355152092   -0.96882534579071
H          -1.51562014157793    1.02592303369796   -1.62916333582094
H          -1.46159972567398    2.64022019292510   -1.00808785405359
H          -1.11504400093607    1.27087810022884   -0.00899459717612
H          -0.00488798066901    1.70575163871617   -1.17704885905523
