    23
        -45.37883970  Gyration_radius:  2.38584817143 Dipole_moment: 5.853
 S          -0.31806457656962   -0.40370397904213    0.81728344243347
O          -0.10695854336508   -0.57325133782761    2.34074471803722
O          -1.67311293672585    0.05196122089242    0.58963086452503
O           0.64434369467860    0.62862829499555    0.36407763660344
O          -0.03331934688515   -1.67348593306721    0.16190386536662
O          -2.42612817243278    2.25592711984333   -0.63092038649201
H          -2.39876723518529    2.97300335430548    0.00453875163882
H          -2.28691107869433    1.43079075709494   -0.10775580398668
O           3.11358931994254   -0.05128160702284    1.06358954346229
H           3.38646496660284    0.59208973051717    1.72000112704292
H           2.23490191862231    0.24385607461382    0.74125106811752
O          -1.39745075116134   -1.21727469924584   -2.01846779349720
H          -0.85071605082372   -1.54694775081124   -1.26472398472317
H          -2.27889841615525   -1.12066851089041   -1.64710229858638
O           1.83124295349015   -2.21905360289386    2.02344803897630
H           2.51695791107218   -1.58786895372383    1.72080907554469
H           0.65188636982137   -1.22943331848337    2.41432755126988
H           1.34166730902043   -2.46555802838919    1.22325079533376
N          -0.37360222399077    1.20570820568966   -1.94216363792376
H          -0.77922732075413    0.24772803530542   -2.17102659944503
H          -1.17042293647851    1.82307897349475   -1.65689594120616
H           0.18969543487320    1.04574663817216   -1.04816517410448
H           0.18282972111379    1.59000931648151   -2.69763488840304
