    23
        -45.37883996  Gyration_radius:  2.38610081177 Dipole_moment: 5.852
 S          -0.44766189328183    0.77938388580051   -0.35421822762342
O          -1.53747251303897    0.41263861726637    0.54065998798709
O           0.25018308950745   -0.43881638616235   -0.83004909514207
O          -1.04328003999995    1.46999387642229   -1.60416738329791
O           0.50166231304366    1.68265800281384    0.26094887619061
O          -1.41131940252819   -1.95565747906579   -2.23979407893898
H          -1.08661857213080   -1.93160929035887   -3.14159869378262
H          -0.75424269975870   -1.46559821827504   -1.70021744196264
O           3.05293441978896    1.24092323075180    0.72042971658083
H           3.54036639962803    1.44331155827369   -0.07967025713884
H           2.13268982083236    1.55893579813688    0.55976057239462
O          -0.11620857418188    0.25125956392527    2.72594732444834
H           0.19421416968481    1.15867490104074    2.79303144632477
H          -0.78896114619167    0.27648286887006    2.00306590563455
O          -3.14279776332460    0.00134068308316   -1.57893174943701
H          -2.99788099327706    0.00775897947656   -0.61990635425500
H          -1.92370893231460    1.00519080015869   -1.74817548102194
H          -2.74432265344363   -0.83685667596564   -1.89335129819469
N           1.68902755474882   -0.97093062889830    1.25183547394690
H           2.01889363875028   -1.90793934266512    1.45492225912839
H           2.46184318401883   -0.27238546243086    1.14193463847949
H           1.12887433722201   -0.91328124799814    0.34344906073958
H           1.02378626618842   -0.59547802423469    1.99409478889191
