    23
        -45.37883995  Gyration_radius:  2.38617123792 Dipole_moment: 5.862
 S           0.01885425834441    0.57933358182447   -0.77220719010221
O          -1.39070970714092    0.23866975494780   -0.91391733244339
O           0.39662603955402    0.59220845927891    0.66113797819902
O           0.88770369143654   -0.31919759951076   -1.50249020816182
O           0.23844127984524    2.01535323747160   -1.30500250654236
O           2.73930308460012   -1.90283525011508   -0.51363515380036
H           3.54020725905350   -1.38939049382911   -0.39631712948542
H           2.12276606071900   -1.32340784849824   -1.02146448229696
O          -1.09755421863670   -2.35653571991824   -0.86186257492072
H          -0.55428891104452   -2.47997461702351   -1.64534050992405
H          -1.37735761156820   -1.41018772780530   -0.90605059355046
O          -0.97670239976886    2.46325866602493    1.95036445897075
H          -0.33359925202139    3.12171108293452    2.21909746635702
H          -0.46396068264222    1.73019899926093    1.54680085150819
O          -2.05853107427307    2.81077198694260   -0.49415700482079
H          -0.61252561891975    2.49886038465954   -1.07295051344985
H          -2.31330281824794    1.89186556210523   -0.67169439948151
H          -1.87536106255366    2.84483684580979    0.46777763277027
N           0.62422337929530   -1.94829520478171    1.08628251628949
H           1.56126303456581   -2.13768417630540    0.65776522395326
H           0.52483749323406   -0.88404962723270    1.08256303881323
H          -0.11477156209663   -2.28244394753785    0.39594120697257
H           0.51443932827575   -2.35306634868069    2.00935922512509
