    23
        -45.37746418  Gyration_radius:  2.37322603285 Dipole_moment: 6.044
 S           1.16012730128055   -0.16155969613521   -0.36076936732627
O           2.62302588411102    0.29475444031227   -0.15485857650008
O           0.83353924119679   -1.14232156189754    0.67139951632509
O           0.29602018203190    1.01955092379638   -0.22328475604707
O           1.05011093713468   -0.71522666906482   -1.70203100176087
O          -1.54190649169187   -2.17316842066500    0.39110716587732
H          -2.03416811437127   -1.82888036782125    1.13845705338071
H          -0.60359013674102   -1.88635641442162    0.53615378148208
O           0.61313532750888    2.11331426457581    2.15340361503401
H           0.97541619850173    2.98511987814992    1.98560006829709
H           0.41983795504952    1.72592068399693    1.26973998829504
O          -1.92269770674252    1.42965036090374   -1.55498052136008
H          -2.51597346279267    1.83939232397641   -0.92305433009455
H          -1.04084808996061    1.39071474393783   -1.11052899915257
O           2.43143735456801    0.14005818632539    2.40290515240283
H           1.84605754940061   -0.60125649796365    2.18357957407144
H           2.74031398756468    0.29204007165936    0.84032229897879
H           1.83062998778020    0.89714596101165    2.56600287336086
N          -1.46250443975240   -1.13994505694866   -2.04850812331609
H          -1.85341677649948   -0.16924564952574   -2.00193278622975
H          -1.77025481033809   -1.64688469172987   -2.87083019167588
H          -0.39146423901546   -1.01492945249215   -2.03327131230191
H          -1.68282764822365   -1.64788735993961   -1.15462112171580
