    23
        -45.37322520  Gyration_radius:  2.44725522094 Dipole_moment: 5.797
 S           0.19757353123388    0.36872774146322    1.11666654000120
O          -0.95569683312305    0.95821879881046    0.18099546315708
O           1.20997239648723   -0.12149325592875    0.15490010605233
O           0.68712085403841    1.44868848692674    1.92807530757159
O          -0.42461570377302   -0.72085261988170    1.82879677913977
O           1.59500968355479    3.64871170759618    0.79598833786772
H           1.13529195544954    4.37530065498035    1.21937817963748
H           1.36428914114944    2.84611829751251    1.31708038139349
O          -0.70916426891188   -3.25868251338846    1.33748623936125
H          -1.63676280938083   -3.44260342118899    1.49760461577904
H          -0.55696746018960   -2.34761677876475    1.69067011842175
O          -1.89778089214073   -0.67217774336431   -1.75605259705157
H          -1.89645761314254   -0.08562970564667   -2.51520450220858
H          -1.75500529868772   -0.09935733642809   -0.97533372041887
O           0.80398393549593    2.13729128621188   -1.24856097278176
H          -0.41214828009898    1.55502452427869   -0.41392726968928
H           1.13782981497900    2.86890766610064   -0.68463741344756
H           1.33734123938663    1.36868629851719   -0.98885919225977
N           0.16146647144082   -2.19184560311232   -0.92397586526590
H           0.75997613524739   -2.72134681420508   -1.54816633408023
H          -0.65466111030418   -1.77314396442467   -1.41963392063765
H          -0.18562704244274   -2.78141024893170   -0.12014503682426
H           0.69503213374777   -1.35951546713894   -0.47314523372476
