    23
        -45.37484933  Gyration_radius:  2.27252394166 Dipole_moment: 5.306
 S           0.95727026142594    0.73197429560187    0.69443353345031
O           1.05034839148773    2.18278207216324    0.85172916438580
O          -0.39313960243807    0.28084544215237    1.03116202945532
O           1.31485686407335    0.31247882063136   -0.66023373119728
O           1.95630910820202    0.10061438460273    1.68910156440418
O          -1.73311649982655   -1.28901188968574   -0.54184145943670
H          -1.22963611796686   -0.73616775168644    0.11130756907963
H          -2.34821256909348   -1.81261035333049   -0.02689833411134
O           0.82441503865638   -2.27959323526775   -0.97183313546974
H          -0.14206003987693   -2.19204937730707   -0.99394494948805
H           1.14787158040209   -1.35638318389823   -1.01554348288931
O          -0.88701044496230    0.94306887883787   -1.95888797995262
H           0.02965470266042    0.73462925510111   -1.66018599856821
H          -1.38701414953622    0.13418471294714   -1.76742003519165
O           1.59229363191812   -2.45440248223067    1.52180208979921
H           1.27074214954041   -2.51467984936918    0.57927198457618
H           2.45361728329921   -2.87704422020093    1.53584613797627
H           1.79339668642072   -0.88980444755082    1.69902708059223
N          -1.28964477074457    2.63261629300021   -0.02526664540234
H          -1.23185857443611    1.99833363770588   -0.90354819481485
H          -1.58918100018866    3.57934111311734   -0.23546034363898
H          -1.88913362370227    2.18390750641352    0.66324960045038
H          -0.27076829531498    2.58697038825284    0.38413353599133
