    23
        -45.37484932  Gyration_radius:  2.27253683039 Dipole_moment: 5.306
 S           0.47718334182396    0.56493705429885   -1.17794578336144
O           0.40071414846562    1.95989192948754   -1.60980947771922
O           0.93101832625708   -0.26587743647567   -2.39853776203623
O           1.45005008860248    0.38661892858320   -0.10058950218718
O          -0.84504502486954    0.10157209103892   -0.75662278722923
O           1.31500631410150   -2.09024928956794    0.84989323041773
H           1.56661735580010   -1.18460559403809    0.57538280127425
H           0.46749204527089   -1.97085789582423    1.30782348924022
O          -1.20041286967567   -1.11659725582642    1.50702663982619
H          -1.09372335199148   -0.70649949255236    0.60915920928434
H          -1.95286937004267   -1.70579079792303    1.44122956582134
O           0.07708728919030    1.30815433887735    1.94834389242954
H           0.75851582950851    1.02141778768326    1.29536474435443
H          -0.40603293519065    0.49354348512421    2.15801273590681
O           0.83816742861301   -2.73629879754002   -1.63883261662884
H           0.99818320144126   -2.61536922368261   -0.66151534058289
H           0.84086970785570   -1.23636220897698   -2.15852123620269
H           1.61634200925674   -3.18046932552846   -1.98216083934560
N          -1.28042784779714    2.63175208785271    0.17046669998546
H          -0.57009053178381    2.48188204213976   -0.65462379182492
H          -2.10466846915331    2.08443107906012   -0.06587315943336
H          -0.78200936327434    2.16522744300063    1.01365027656486
H          -1.50196733240860    3.60954906078949    0.32867901144623
