    23
        -45.37484932  Gyration_radius:  2.27253833384 Dipole_moment: 5.306
 S           1.10125510509960    0.01836822035420   -0.84929909370173
O           2.46649892932302    0.62787591490834   -0.46113513597043
O           1.14245414400792   -0.25272482016723   -2.28563665607999
O           0.89628792387220   -1.20550045342619   -0.07528426344972
O           0.04917316317100    0.99210709341561   -0.55695761003651
O          -1.68597541306839   -1.57626545292818   -0.43141579206810
H          -1.99994471916542   -0.99413844884123    0.27816796866657
H          -0.71512919094887   -1.64659657090431   -0.27186648762913
O          -1.70040521132336    0.58141946079537    1.31511008813067
H          -2.00617396714754    1.42110458081028    1.66022443226149
H          -1.01454754544585    0.79929137660774    0.63110714045308
O           0.51581615143608   -0.61220543476042    2.48592013403906
H          -0.37668524042947   -0.24907475150580    2.36839340888296
H           0.72224450955684   -1.02067468210372    1.62024406938068
O           2.25791806150233    1.28443993261836    2.03168829654311
H           2.39681988981613    0.95668616343300    0.48470030537897
H           1.58048378209891    0.61283755982168    2.32393610529922
H           3.07669119874569    1.04356233962688    2.47021495220388
N          -1.37708668964247   -0.15213400704304   -2.58363344451387
H          -1.80649491790630   -0.45099791219302   -3.45339592233305
H          -1.64082745331453   -0.78049755517406   -1.73946178151416
H          -0.27983766498287   -0.21015635286818   -2.60591233548360
H          -1.60253486526189    0.81327379952698   -2.35570836845948
