    23
        -45.37068253  Gyration_radius:  2.30515152276 Dipole_moment: 2.017
 S           0.13459857753545    0.82658180795624    0.75868969269287
O          -0.86924348978851    1.30383626178551   -0.20721264454963
O           1.38898388410936    0.52910408916512    0.08167668605146
O           0.36939962915282    1.95675557403033    1.78668026703481
O          -0.36608253336115   -0.33251464124717    1.48911007698896
O          -2.27124626396223   -1.91133997704560    0.50066667895558
H          -1.77775194736951   -1.26956034363573    1.05410274287113
H          -1.77240579249607   -2.73287037960896    0.57069629871709
O           0.52305852873945   -2.74099511117771    0.82826602479824
H           1.30532405473474   -3.01375620406691    1.30935642370236
H           0.28202183783922   -1.85390811301660    1.17931802711463
O           0.81299418486924   -1.46015298704586   -1.52192489901854
H           1.18676889122386   -0.68103577491210   -1.04263924713515
H           0.78228687053944   -2.15921415948782   -0.83656061265837
O          -1.54738763322953   -0.63705266256631   -1.58404544649108
H          -1.98807602013413   -1.21137118897098   -0.85582704856701
H          -1.34305200342500    0.27124227693478   -1.07539522692734
H          -0.57217694071000   -1.03994309367847   -1.70819291245426
N           1.20396808481920    3.36524241568218   -0.22242108118815
H           0.71170010062044    2.69309820950983    1.20327332949847
H           1.75803583621229    4.18040066212817   -0.45259923544247
H           1.70570381178587    2.52751624780504   -0.50077944929890
H           0.34257834231405    3.38993707143032   -0.75423846471537
