    23
        -45.37716565  Gyration_radius:  2.39553113681 Dipole_moment: 5.423
 S          -0.41664514790137    0.81285772975628   -0.18507435293743
O          -0.35912145131462    0.31315253988509   -1.55464270003637
O          -0.66767723652624   -0.29709329940167    0.75375060350050
O           1.05662598210619    1.28239694564321    0.10997965167981
O          -1.30425180223003    1.92425264035291    0.01846224758124
O          -1.67082564032838    1.47848315207718    2.58800937207638
H          -1.51868731813960    0.53447121964709    2.46378110859357
H          -1.79922221429295    1.79993928995962    1.67271760474836
O           2.08384210165791   -0.68547918099488   -1.57778013418893
H           2.57857472865230   -0.07234905677865   -1.02753402879936
H           1.23688184044218   -0.21638515667206   -1.75332863590241
O          -1.27058667014866   -2.02516156859347   -2.39690281797264
H          -1.11077715023183   -1.08758575414167   -2.14643396133952
H          -1.06147496864284   -2.08457597343364   -3.33087787394090
O           0.75709727980836    2.48254770654673    2.38416725142893
H           0.60725335649709    3.41176433287484    2.19585721375639
H          -0.12948464897971    2.11649061641515    2.64229001700543
H           1.01829014651979    1.74612421964194    0.99317587479291
N           0.41017207010009   -2.33165180494334   -0.35442028323784
H          -0.25328637124683   -2.52131633891304   -1.14087288478098
H          -0.06244802367349   -1.53794837766479    0.21800503580794
H           0.60916592235675   -3.15426082549063    0.20303923298261
H           1.26658521551693   -1.88867304577032   -0.77536756082084
