    23
        -45.37716566  Gyration_radius:  2.39549857701 Dipole_moment: 5.421
 S          -0.56521514242434   -0.72457244625602    0.15570902543136
O          -1.63133623873146   -1.65307309901345   -0.10059151233128
O          -1.02310503471942    0.27090598022912    1.28586175703800
O           0.65674308359816   -1.32037293663554    0.68539000922862
O          -0.25582048195008    0.12465382572746   -1.01033310000597
O           1.62374165308315    0.73345375432305    2.03178163416345
H           0.83610954436917    1.15976756236312    2.38018213187424
H           1.30024200575941   -0.14027300539481    1.71528438309067
O           2.97027540292166   -1.51424525946888   -0.58663918716596
H           3.58979566841601   -1.91888204498589    0.02332195698067
H           2.08175306716721   -1.62986364628159   -0.18108701550263
O          -2.83509537842530   -0.15430376710010   -1.90080682704957
H          -1.99691627218457    0.25374444056606   -2.14720710225637
H          -2.55273710666396   -0.93021554275034   -1.37563156014456
O          -3.36089644584505    0.97229739502404    0.42269263322812
H          -4.00027056057162    0.38089562134422    0.82617845622443
H          -1.92407154996326    0.59749717442447    1.00645924857683
H          -3.27907758779919    0.67285548233730   -0.52085277640405
N           2.10080627702141    1.00247868487715   -0.55820991157389
H           1.09421226531440    0.70992023314393   -0.84526424092855
H           2.43707046567925    1.80996641457152   -1.07001670511097
H           2.05321972435308    1.15093715870922    0.48219626861287
H           2.68057261159832    0.14642800023900   -0.71841755597297
