    23
        -45.37884006  Gyration_radius:  2.38636735545 Dipole_moment: 5.867
 S           0.73409154120319   -0.16623044342682    0.60814583463418
O           0.05047630182462   -1.28098866812566    1.22889281094876
O           0.45496506155593   -0.15035632228752   -0.84759844700636
O           0.37314006264817    1.11559286955605    1.19952830555100
O           2.25892397397550   -0.37469329808226    0.76838171307328
O          -2.15939192077889    0.59749049912309    1.57141552131002
H          -1.23676580670721    0.94483357019528    1.50731525935338
H          -2.09347960112343   -0.13999390596330    2.18457154710281
O           1.94266995381835    1.69454906739154   -2.04397937333904
H           1.33692498202215    1.02256163678601   -1.66361854843521
H           2.55429681402997    1.21456905878196   -2.60509810729095
O          -1.63889480613902   -2.94948812408773    0.09916322700173
H          -1.13477740474368   -3.64551890686000   -0.32515337671030
H          -0.98712230976000   -2.43441208102535    0.63182133034369
O           2.76433411397290    2.12180619186945    0.48748458820101
H           1.89565221972391    2.22880861510128    0.90553824151842
H           2.64491283354843    0.55092583561720    0.69130005859446
H           2.59744436705936    2.20275650751876   -0.47463988258528
N          -2.10628396957089   -0.50488104841971   -0.81759437410072
H          -2.70224414806843   -0.19579339270048   -1.57739633078667
H          -1.07051388709028   -0.30759742725317   -0.99286378857509
H          -2.31522521704993   -0.00889422264743    0.10147088203627
H          -2.16313315435258   -1.53504600105990   -0.63708707083941
