    23
        -45.37716564  Gyration_radius:  2.39570069798 Dipole_moment: 5.424
 S          -0.66255752632641   -0.35350061000372    0.55162492124501
O          -1.24464702730176   -0.87475774330913    1.75740448516838
O           0.80394371726934   -0.21865422760920    0.63867211335611
O          -1.03349025454548   -1.06297032724905   -0.66826730315772
O          -1.20216128080150    1.10708834617939    0.32034561116292
O           0.61644712429200    0.07429037646701    3.36051116529293
H           1.27355672377234    0.02882222683270    2.65639510038982
H          -0.11966482068987   -0.46444050638805    3.00606299916444
O          -0.78523974690919    0.88773068078544   -2.42859730624522
H          -1.07161883783985    0.13205970640340   -1.86719518492079
H          -1.08158513564749    1.66226708879843   -1.94302292859540
O           0.57778082464955   -2.54574004613281   -2.15547523485658
H          -0.07125726606477   -2.17065713801496   -1.51883336721654
H           0.06191029611587   -2.85252261083216   -2.90341261139675
O          -0.83864999592436    2.15635831472317    2.65903693201443
H          -1.07625038709674    1.58044958376481    1.19018504394210
H          -1.65544827682230    2.04312737689653    3.15033289659162
H          -0.20597149791735    1.48997908417422    3.03610984327031
N           1.58396808731594   -0.10740482999254   -1.79208993620847
H           1.36889776628892   -0.12365288453355   -0.72696852066780
H           2.50908640070284    0.24942200541692   -2.00162353243021
H           1.44687682040660   -1.09656633636284   -2.10437809128791
H           0.80607428306651    0.45927245998079   -2.21681708461002
