    23
        -45.37886627  Gyration_radius:  2.31174489504 Dipole_moment: 5.422
 S           1.09087360802215    0.54306890467831   -0.14058083350047
O           0.91620800566509    1.53468077434235   -1.19104860296920
O           1.44401747986884   -0.77155961254984   -0.65859628583617
O           2.22901988703269    1.02766333002300    0.79044883041559
O          -0.13594043705216    0.45815212250813    0.67117432770085
O           0.07236875630556   -1.47849339577098    2.43718063102530
H          -0.19247215769003   -1.11560249481834    3.28394977739803
H          -0.07183072363945   -0.76417641590154    1.77608103193682
O          -2.32088850897991    1.80629335325950    0.09025342886383
H          -1.54752464472583    1.30021694146333    0.43607486064289
H          -2.14855783934607    2.72335079912293    0.31064182398708
O          -0.91308501141778   -1.65594916231049   -1.33173783133246
H          -1.30832246925117   -1.82490749921247   -0.47249889277297
H           0.03668864762479   -1.45881787400047   -1.14021661642474
O           2.66362017603515   -1.35454390028713    1.66876015040477
H           1.82005760017141   -1.56205515822759    2.12116050856649
H           2.50975231012014   -1.60478219706994    0.74576726614209
H           2.53419182139878    0.19307037415380    1.25383352778739
N          -1.36015701740161    0.80676673411138   -2.17012009153759
H          -1.98934503112298    1.25799350851156   -1.46325726192969
H          -1.31643404281432   -0.23278928138963   -1.95683249733696
H          -1.62971973636616    0.99749153639290   -3.12877732004482
H          -0.38252066242719    1.17492862295124   -1.93165992118689
