    23
        -45.37131390  Gyration_radius:  2.39943891814 Dipole_moment: 6.321
 S           0.47264528185764   -1.05864260526400    0.27390175848806
O           0.32523000061334   -2.23258473227864    1.27520647729724
O           1.87589772853031   -0.64959486846671    0.31406865625605
O           0.02970703095473   -1.48370190421008   -1.03386116192360
O          -0.36543775329172    0.05187547515096    0.78778056146843
O          -2.87365079667409   -0.84248078853596    0.48076968351058
H          -3.16449797834745   -0.37986526482440   -0.30786926989482
H          -1.99692409516628   -0.47233757662343    0.70422636784998
O           1.54904392478570    2.87551701244401   -1.18824675909352
H           2.25441426809258    2.63292589741916   -1.79106892970751
H           0.75920694107654    2.34704221712214   -1.46604397870362
O          -0.42267914958983    1.15826452791123   -1.62698552935103
H          -0.20884466665491    0.31783841792832   -2.05141285394749
H          -0.57119773158820    0.89250107934509   -0.69975118725517
O          -1.70223794765184   -3.24539941926887    0.05658111750040
H          -2.36073845191462   -2.55797122820971    0.28181350644180
H          -1.23890197150854   -2.90127014168520   -0.72265484399585
H          -0.46072575407620   -2.76970883980703    0.95967801194382
N           1.64201256325680    1.70585833412628    1.18387094998433
H           2.15796749645402    2.07850485785868    1.97299648122061
H           1.96017573652245    0.70758301627040    0.86982901979294
H           0.65493456203911    1.50432898617642    1.40437301001456
H           1.68460074228916    2.32131754741851    0.32279889209942
