    23
        -45.37131452  Gyration_radius:  2.39806784701 Dipole_moment: 6.338
 S           0.07064184450769   -1.08790631845211   -0.49298259419387
O          -0.63703012026087   -2.00462693013055   -1.52307571493144
O          -0.49629858353131    0.27141874987395   -0.66628736159848
O          -0.17164733378481   -1.58720149905769    0.84095103828388
O           1.48551615088601   -1.06024808142114   -0.86123029705233
O          -3.02063963848677    0.03271734319782    0.20309220448523
H          -2.14792668040630    0.18945672540955   -0.20837793403259
H          -2.97662081963296    0.42386905331918    1.07808940108461
O           0.29069527317234    0.94780694073973    1.77871536994524
H          -0.12356504164295    0.88544873546894    0.89717141690862
H           0.33839455078044    0.02235252094102    2.05017554317979
O           2.53895113569417    2.12985442067264    1.02192978938762
H           1.70678669098913    1.79096456208607    1.43826039516449
H           3.25329050742095    1.61542802439836    1.40251578428038
O          -2.54503526478948   -2.62955566940775    0.08679055835421
H          -1.83745917757872   -2.54945481384370    0.74499563183261
H          -3.00489845888275   -1.76641179630583    0.10501337288999
H          -1.45460191645470   -2.35907091059611   -1.06318685586628
N           1.77209934686523    1.38682454286096   -1.39959144018960
H           2.19332816796420    1.73812656180717   -2.25222385339492
H           0.74667739987401    1.49259081464490   -1.38179941983504
H           1.84107502028010    0.30162292382186   -1.27855874075288
H           2.17826695704177    1.81599411995589   -0.52038629398429
