    23
        -45.37131427  Gyration_radius:  2.39834461482 Dipole_moment: 6.330
 S           0.60979933214913    0.77502851922966   -0.67476189298094
O           0.73064114635648   -0.30730821733794   -1.62420545551803
O          -0.59692691554048    0.61195255585582    0.17174001001789
O           1.77745963176698    0.92860364453397    0.19210644422465
O           0.44564670039253    2.11417593877603   -1.43767938960731
O          -2.57053736673610    0.18722682032300   -1.59131701272190
H          -1.93271870376881    0.41667514943440   -0.88695950277757
H          -2.69405323576699   -0.76280017852801   -1.53911676993039
O           1.08004220117316   -1.92154966820243    2.67966749508397
H           0.57516365566202   -2.10997988980354    1.84890685339636
H           1.97705493598990   -2.21930433227781    2.51684585376555
O          -0.16176119773806   -2.00304692673597    0.33923620195366
H          -0.52461152215666   -1.09714985718499    0.35585902951288
H           0.37949558625134   -1.99411155253915   -0.46032323078985
O          -0.76971420095971    1.02812782394782   -3.42894822105466
H          -1.61388712050226    0.81466332944289   -2.98323540195507
H          -0.04064645517463    1.89177492936001   -2.28609126888801
H          -0.18033068175092    0.28847711586194   -3.21487860972510
N           0.70109885559656    0.68821051535204    2.46014993849541
H          -0.22326278216403    0.77198048512495    2.01129409558538
H           0.86178621910525   -0.32277633144426    2.73307606885157
H           1.33865738066785    0.88189814135893    1.59235482427149
H           0.83160453714015    1.33923199544547    3.22627996078691
