    23
        -45.37131373  Gyration_radius:  2.39972367852 Dipole_moment: 6.322
 S          -0.21938160758855    1.13054155918508    0.30406754494190
O          -0.25386480250604    1.69952896181425   -1.04245156226690
O           1.09770514207267    1.12348935621209    0.89735619448819
O          -1.17182017724905    1.99132305024265    1.17247823780822
O          -0.79435225154412   -0.23594925557864    0.26213173529635
O           1.08695277177578   -1.30803796093288   -3.03228765884757
H           1.71232197157305   -0.70428112317904   -3.43743462502609
H           1.37481103680722   -1.40715029300363   -2.09022146662722
O           1.56907717169766   -1.23554063228916   -0.42604484650907
H           2.03343337941865   -0.46816013143761   -0.06881006526149
H           0.65206361600144   -1.08212352701079   -0.12937682343675
O          -0.49339192686899   -1.13480772983750    2.76968104988206
H          -0.71655362137634   -0.86002394149137    1.85856603733075
H           0.26889673896658   -1.71256619251781    2.69441812506169
O           0.05641776867614    1.44749221422302    3.36755262264215
H           0.82718721052592    1.43748273980886    2.77920456018740
H          -0.84595916871908    1.89992988719544    2.11646863079871
H          -0.21018207642719    0.50992013172502    3.44930163342842
N          -1.22917065864839   -0.23564932586561   -2.33229872278653
H          -0.39562576008198   -0.72448317238890   -2.76608051652506
H          -2.02560125619776   -0.16470781785436   -2.95556822960033
H          -1.45641261896630   -0.69109976037421   -1.43528725403044
H          -0.86655089133195    0.72487294335300   -1.95536460094236
