    23
        -45.37884005  Gyration_radius:  2.38642625059 Dipole_moment: 5.866
 S           0.16959529507531   -0.88733740646899   -0.34494668580542
O          -0.88275083194063   -0.58186435294091   -1.30535265547911
O           1.18723149676993   -1.84352109644327   -1.01143956600234
O           0.90988335851606    0.34764987088145    0.00704152038907
O          -0.33500764740957   -1.51859431029646    0.85603933184363
O          -0.22250570672972   -0.59606975943010    3.31590697553240
H           0.62865797019437   -0.83376095177358    3.68691147723644
H          -0.28602794075088   -1.08265123139471    2.45974521948633
O           2.09816263536899    1.34536803597188   -2.14761053192728
H           3.04008858832688    1.25524099264598   -1.99273640713727
H           1.65685093372918    1.05487018943700   -1.32063144469082
O          -2.69924026186352    0.14023224687640    0.42649200521165
H          -2.13566968616837   -0.10548223328487   -0.34675607126635
H          -2.80653559950178   -0.68189457693735    0.91310867943266
O           0.89391504208080   -0.76389959425948   -3.31688509010551
H           1.37207713640468    0.07543158777286   -3.15281329550939
H           1.19784078997267   -1.56037513281380   -1.97659271334370
H          -0.01010371348254   -0.60644935739734   -3.00251707825218
N          -0.76001702116659    1.41280512391827    1.66954099793133
H          -0.78347302304443    2.41114450735012    1.84468112272909
H          -0.57600439040006    0.84372578500039    2.52946025734619
H          -1.65973030667353    1.04688066090041    1.23254360076771
H           0.00276288268158    1.12855099268704    0.97681036161261
