    23
        -45.37949578  Gyration_radius:  2.38771766948 Dipole_moment: 4.344
 S          -0.56976335041884    0.26480586180569    0.70256988396563
O          -1.74839107525327    1.07609722377589    1.28989053919518
O          -0.12486475535346    0.96108363644165   -0.52046524972235
O           0.48615573644027    0.21668139717334    1.69155532870104
O          -1.04988609311460   -1.07638187937984    0.36876494716267
O           2.93764186446889    1.11306425700883    1.38867771808492
H           2.93176965709290    2.05846563870695    1.54662899078339
H           2.04421463320415    0.79128803855995    1.65759491991767
O          -3.04500527481897   -1.04358353240625   -1.36633532852208
H          -3.76541114675824   -1.53033624549573   -0.96245696860601
H          -2.27575524506205   -1.15081757478950   -0.76428550268680
O           1.28787922053866   -2.26456716551906    0.40974428390161
H           0.34625903813589   -1.97571359032766    0.36478008859622
H           1.53395155043333   -2.12721214275456    1.32893795375465
O          -2.71373616032050    1.59436692862735   -1.02993888156828
H          -1.77955358964275    1.62623646596653   -1.28228916352921
H          -3.01905733865040    0.70255549225327   -1.30363453276333
H          -2.27761667004851    1.36149573541439    0.48575658452329
N           2.19190211024929   -0.12215819147408   -0.83747668761095
H           2.74993678578219    0.39028852938870   -0.11413512775472
H           1.24389102408077    0.37902903776624   -0.86496815988578
H           2.64661765720754   -0.16035770386337   -1.74282693903868
H           1.96882143178926   -1.08433017685831   -0.44608868690328
