    23
        -45.37949586  Gyration_radius:  2.38776365844 Dipole_moment: 4.347
 S           0.27859336886568    0.50182881789825    0.74727114348473
O          -0.96628598841800    0.52290902720901   -0.04520283991147
O           0.32853686701364   -0.65643134030428    1.61409259840525
O           1.43912780417604    0.55328450881001   -0.14207230018731
O           0.28134552398676    1.77066230401457    1.63190433565239
O          -1.45768726518069   -2.57964550360203    1.73782462507555
H          -2.17908614304660   -2.28141250850347    2.29399326928752
H          -0.74593094097680   -1.90325193247039    1.83768144375068
O           1.44941959486609    2.69994015467252   -1.68557293218806
H           1.49697766345420    1.85151068020413   -1.19197574956477
H           2.28902307718388    3.13826905281886   -1.53751102455698
O           1.57317889017397   -2.02023570657315   -0.62969767848350
H           1.74388425671537   -2.35409284103366    0.25559489056280
H           1.66509681693159   -1.04244067252945   -0.54237159448041
O          -0.73564528172287    3.22080640425277   -0.22414184489164
H          -0.08671316973107    2.48918060588331    1.03484993012101
H           0.01006011440737    3.25044633305514   -0.86168240943817
H          -1.21364219670947    2.40628292704124   -0.43729970208423
N          -1.05854889706727   -1.93785192434833   -0.80497527782416
H          -1.13353160210275   -0.88576675523949   -0.60992556348972
H          -1.39796755298504   -2.40190818239555    0.07073779244446
H          -1.56625249921583   -2.22480949926915   -1.63428763637895
H          -0.01395243057988   -2.11727393958214   -0.87723346529955
