    23
        -45.37949583  Gyration_radius:  2.38789574771 Dipole_moment: 4.345
 S          -0.01776597251834    0.91899737959733   -0.20867700066674
O          -0.25782666013383    0.19081329075286    1.05248840736223
O           1.22815332292330    0.45961006208877   -0.82289058469702
O          -1.13702473766141    0.77842971620757   -1.11586409217066
O           0.13340510399321    2.41652269192978    0.14734486145481
O          -3.29581723392561   -0.66330137197618   -0.70748817227515
H          -2.57412559051758   -0.04096715125237   -0.96415947747990
H          -3.89607139455999   -0.15363619603839   -0.16093560358137
O           3.32483121449780    0.77918252037153    0.75604997524445
H           2.59691742555084    0.57471436877054    0.12830202968113
H           3.96351651984669    1.29413988236426    0.26010737062898
O           0.21356867850400   -1.60750820099914   -2.07861841579098
H          -0.40188204359090   -1.16444572566183   -2.66960336473249
H           0.74195960493413   -0.87447490456016   -1.68420481422933
O           1.44097588667405    1.90427269023076    2.29449918182035
H           0.66604389472910    2.41609138040266    0.99843678014958
H           0.84996130132754    1.13831694862483    2.33194227597633
H           2.27952239410964    1.55827047542005    1.91951405200543
N          -1.17870050220682   -2.02930042203194    0.12295765597219
H          -0.61898246138253   -2.06393143994217   -0.77935098046748
H          -2.15726532080967   -1.74913217404274   -0.12453730121907
H          -1.12949786557007   -2.89323222829947    0.65117214883390
H          -0.77389558417136   -1.18943158197491    0.65351506813920
