    23
        -45.37180077  Gyration_radius:  2.34696148515 Dipole_moment: 5.250
 S          -0.69982414645733   -0.19519975206350    0.60752203119157
O          -0.18008263115966    0.86509740702303   -0.25495704378099
O          -0.97649260989409   -1.39422424230652   -0.20639078103947
O           0.46759012734487   -0.64186100326105    1.54991283244258
O          -1.81793867257223    0.22000107042070    1.41183266405508
O          -0.99736391400987    2.72197511688298    1.55319819237164
H          -0.53073647188454    2.58190816582883    0.71896392409242
H          -1.59461322892482    1.94989912812886    1.59273193176215
O           1.60041047309063   -2.11575563969517   -0.53954799049953
H           2.03738843685064   -2.01910148154346    0.30981208772877
H           0.65086994872573   -2.00521539447882   -0.34069976074415
O           1.53494605730404    0.08081259450157   -2.06171574189711
H           1.86213940907397   -0.72145914945212   -1.59881539555776
H           1.05231688850144    0.57665284639529   -1.35730862692789
O           0.53688563872016    1.34791297816061    3.20007421933111
H           0.57014839424859    0.09549306810856    2.21537294429817
H           0.05122770460639    2.02192815032313    2.65666238956383
H          -0.04998424062754    1.12959418528070    3.92766134579346
N          -0.72772001037844   -0.90834939288010   -2.71813986367393
H          -1.39358841376235   -0.22902595289800   -3.07084048862132
H          -0.72909131582065   -1.75240620129832   -3.28166076020489
H           0.28382783320826   -0.46611953462287   -2.63041280883934
H          -0.95031524618453   -1.14255696654504   -1.68325530084221
