    23
        -45.37729934  Gyration_radius:  2.38293015282 Dipole_moment: 4.773
 S          -0.72534187676731    0.05004585311171   -0.54290833360811
O          -0.23793410829071   -1.11720060964318   -1.24787414174116
O          -0.65746638684079   -0.14547356747026    0.91716115738095
O           0.01044401887478    1.25979064896287   -0.91891595606873
O          -2.20822129932718    0.23886627121125   -0.93481570986414
O           2.35723525770911    0.10210295218444   -0.99903233924597
H           1.55197519552680    0.67386319358835   -1.00066519988432
H           2.24223612933339   -0.45995793230758   -1.76971240966624
O          -0.57753732370397    2.53166568635654    1.32945357108094
H          -0.68190692174196    1.65665141570968    1.72800907791825
H          -0.16718317186534    2.32553615925440    0.46776487991974
O           0.58329257105760   -3.39616986592494   -0.24363805599241
H           0.11824485053016   -2.62995170514944   -0.65659153520322
H           0.85556719504292   -3.96181458688487   -0.96775543202984
O          -2.89083243537477    2.54413973776977    0.05603926347301
H          -2.11488293616995    2.68525418965741    0.65547580418937
H          -2.80750891132918    3.19038294404457   -0.64851616570269
H          -2.54479277906100    1.09217223990776   -0.53761634754653
N           1.61200782839707   -1.34016141893544    1.09497415851496
H           0.64898537130168   -0.86563031454318    1.18072622002032
H           2.12415977340637   -1.34294415360148    1.97005855745773
H           1.41214012276854   -2.30080597607298    0.73797168176797
H           2.09731982651965   -0.79036115123298    0.33040727483102
