    23
        -45.37332524  Gyration_radius:  2.34616092785 Dipole_moment: 5.410
 S           0.29234644717061   -0.83772203604016   -0.09748734432479
O           0.18013704845426   -2.06535381868566   -1.04284351360593
O          -0.15754179746127   -1.20977922582365    1.22622206648322
O           1.71792684802472   -0.46190505166296   -0.10613620260781
O          -0.50683511846729    0.23943357967600   -0.67954940752644
O           0.11568897844517    2.59994374589263    0.31037051939705
H          -0.41156366658465    1.83959679247588   -0.01848901721756
H           0.49312624452141    2.26809736721367    1.15537504655273
O           1.25282320675683    1.00918489483026    2.13460659796671
H           0.57727371974285    0.45007547859312    2.53215198630449
H           1.65513871636375    0.43352237436828    1.46380281243018
O          -2.64403876671841   -2.10969863128114    1.18602286887947
H          -2.61517049957825   -2.99347365114696    1.55642828089584
H          -1.74316788684682   -1.73643826352270    1.30654717640567
O          -2.32088616489942   -1.63704928069773   -1.43312326087311
H          -2.05403899026835   -0.70968020046550   -1.35131705598438
H          -0.78630418348783   -2.08019714076407   -1.30735901947712
H          -2.67548815863142   -1.87668171409403   -0.55008779952380
N           1.95597418906316    1.79701287107527   -1.28779421548339
H           1.62859539072207    1.76990833562650   -2.24809123305108
H           1.22460592092148    2.32005296950775   -0.65184159440324
H           1.93570495187405    0.79181667297049   -0.87079217173345
H           2.88569358088244    2.19933393195521   -1.22661549950160
