    23
        -45.36659543  Gyration_radius:  2.37478658515 Dipole_moment: 5.735
 S           0.20896898807111    1.00249902001448   -0.73213820057612
O           0.45234768133012    0.21523398313141   -2.05014192114223
O          -1.20873078611756    0.77936733336293   -0.35262530413195
O           1.06526671831699    0.42858130385999    0.30338204825487
O           0.50030409188133    2.39843043630729   -0.95103230981785
O          -0.55694999458394   -3.08783215710158   -0.28484753671224
H           0.35527683186266   -2.71030981208314   -0.31718086082625
H          -0.47613152624254   -4.00275308835650   -0.55903510303933
O           1.81778134678413   -1.92287945701268   -0.59428393460958
H           1.62989207006246   -1.05438870118507   -0.17244015870543
H           1.93828006687180   -1.71750908773449   -1.52497783833719
O           0.84550140149861    3.03106683432564    1.54940138330409
H           0.70160405149110    2.96085230803855    0.56914561962988
H           1.74972818323259    2.73076364075121    1.67499708345579
O          -1.60372850520832   -1.30331176996896   -1.99429181234679
H          -1.96064319355120   -0.61924539965768   -1.40857666208642
H          -0.32616214860009   -0.42136726241516   -2.16768700482938
H          -1.32327981976682   -2.03409534795388   -1.39739156848094
N          -0.78558288934832    1.05904788245541    2.12984755719935
H          -1.54951764892725    1.20117957972412    2.78301061162318
H          -0.21737183229775    0.24850780999899    2.36679516533510
H          -1.11876555605317    0.90617389281625    1.09216710886528
H          -0.13808754069868    1.91198806872565    2.03790364794652
