    23
        -45.37884006  Gyration_radius:  2.38645738518 Dipole_moment: 5.866
 S           0.56352423390722   -0.10221394871209    0.77960925264382
O           0.50736527405490   -1.54694506641400    0.70828568832273
O           1.87798899447703    0.30343429198455    1.48795844719892
O           0.61987782428713    0.46864620814728   -0.58720410719709
O          -0.55815737937393    0.46932084360586    1.51327490067617
O          -2.38853359439229   -1.17419987549831    0.63635126607535
H          -1.82392242948597   -0.48511883505337    1.06345398446417
H          -2.04873560624607   -2.00569646322138    0.97896321040951
O           1.03347741274749    3.08853597560337   -0.46709354179534
H           1.90576199087664    3.23331487958871   -0.83791177130604
H           0.84217388428648    2.13328689138341   -0.58512727901339
O           0.29699050452279   -3.03481251109793   -1.44950653294133
H           0.43040354053434   -2.60631912106467   -0.57066536947734
H           1.17531967240644   -3.16620733611783   -1.80993325412629
O           0.95432116698977    2.59128296978452    2.18098869085265
H           1.69052293213546    1.22272663287693    1.85032720796675
H           0.96659849768108    3.03114386627923    1.30555915049919
H           0.11053377303091    2.11402093257884    2.21332164335431
N          -1.25575474405660   -0.90190928202370   -1.72334869656007
H          -0.49463098948370   -0.23006025653372   -1.38907592474724
H          -1.75682072510099   -0.55979562124501   -2.53565020451227
H          -0.76497835134024   -1.81212229777988   -1.89008159984946
H          -1.88332589244619   -1.03031287706189   -0.87249515093894
