    23
        -45.36350652  Gyration_radius:  2.37592332979 Dipole_moment: 8.301
 S           0.45884853517334    0.32467502208624    0.93370102863804
O          -0.59358242291649   -0.20838224002914    1.81907906946753
O           1.33262475040927   -0.70573351015943    0.42038131630477
O          -0.27850284772901    1.00232174455839   -0.25285827848020
O           1.15996687601127    1.43375545257609    1.58686044772645
O           2.10144765324475    0.45206353275378   -1.88122083919027
H           1.61339162343612    1.27175559335259   -1.77113860230167
H           2.00926227574843   -0.01704421855581   -1.03132944759362
O          -0.61080057703446   -2.55727956609722    0.31159080770378
H           0.26372757419756   -2.12986529647816    0.30651822640510
H          -1.02818243727256   -2.20730001745423    1.10582603671776
O           0.52023873128780   -1.23133798530091   -3.26299762878307
H           1.16439167973670   -0.58758390201794   -2.89261219300354
H           0.90232517446652   -2.09908486512695   -3.11920927942895
O          -1.45349395479371   -0.80297867293099   -1.52518879162211
H          -0.84945827625329   -0.95117243802184   -2.29257135661370
H          -1.30413257459685   -1.57184665170323   -0.92836206231362
H          -0.81670067692992    0.28836164504636   -0.80664626600336
N          -0.96255880216560    2.11079485962357    2.69349678845232
H          -1.00266174655200    2.31749007297656    3.68588783246870
H          -1.58284834089604    2.70955340400911    2.15834335483180
H           0.06485719974310    2.10068910301634    2.28131241820352
H          -1.10815941631163    1.05814891387275    2.46113741841821
