    23
        -45.36866948  Gyration_radius:  2.2787417177 Dipole_moment: 3.038
 S          -0.42752527658596   -0.71464705234559   -0.20127395832979
O           0.53031588537882   -0.04374360072543    0.71345013035077
O          -1.74153849570775   -0.77944489621270    0.41192420234818
O          -0.43832063162480   -0.05502230098363   -1.49064390806618
O           0.12771118233736   -2.14985791436595   -0.40750017784270
O           2.68473797105546    0.06540078506791   -0.88189009037417
H           2.64093013381360   -0.73207344194422   -1.41270317095368
H           2.00652182300406   -0.04138680062941   -0.18714032340819
O           1.13431404204500    2.00775862904140   -1.87435697859449
H           0.49977787930906    1.26873527780243   -2.01908918705885
H           1.96209980565369    1.53425856456039   -1.64056146187713
O          -2.28182832443476    1.72660868597397   -0.19949576617325
H          -2.23898701083504    0.79376417706820    0.11687609561376
H          -2.35323849010481    1.65771837101426   -1.15592158425945
O           0.11867254206333    2.39292579593352    0.36028173052638
H           0.59813030289857    2.40610336450897   -0.61157686454859
H          -0.88756924491155    2.31227406423069    0.17698790504336
H           0.35523434964379    1.43081171413035    0.67466876149777
N          -0.45714020426821   -2.69560537073320    2.05629981503453
H           0.19971602532329   -2.23688021178563    2.67417933258298
H           0.00760953293689   -2.57189962739171    0.49818102551535
H          -0.81363960843139   -3.52304955474161    2.51671225972198
H          -1.22598416856460   -2.05274866747727    1.88259222325431
