    23
        -45.37182635  Gyration_radius:  2.39871841673 Dipole_moment: 5.922
 S           0.50685497841107   -0.28415535114088   -0.70977162281813
O          -0.55063914338235   -0.81722940898531    0.32123792396865
O           1.82925311000693   -0.57222262135719   -0.21692734091238
O           0.16287160913170   -0.90715945458172   -1.96559489951719
O           0.25289550653565    1.18286207169450   -0.76246261387370
O          -2.13560329797535   -0.44635931497036   -3.04686303167209
H          -1.93743997882445   -0.09920030403149   -3.91869797660354
H          -1.26303102326887   -0.76284284288375   -2.68401446855093
O           1.72494383734481    1.78374184501273    1.38877661926829
H           1.22412538359902    1.72121917267058    0.55392401653211
H           2.53657521561013    1.29574626614464    1.22262051751262
O           2.31757639538514   -1.83323335729193    2.07535068204425
H           2.26324407013701   -1.40355735965094    1.19591797391046
H           2.23884519329329   -2.77443546373754    1.91492471653095
O           0.30644336077522   -0.12638985796408    2.59233308443813
H          -0.23810657044415   -0.56383341199085    1.27050173263777
H           1.01119881127028   -0.79646736073892    2.70337142270189
H           0.78822232541223    0.69773576097294    2.34579787851255
N          -2.25250969198782    0.96715802580935   -0.84848572812391
H          -2.36180265469833    0.26505052251807   -0.11468849522198
H          -1.16864278482915    1.21183033262587   -0.82674411229609
H          -2.40044507911974    0.49109365335480   -1.78782932639678
H          -2.85482958238412    1.77064844851491   -0.70267694207418
