    23
        -45.37878061  Gyration_radius:  2.33013507374 Dipole_moment: 5.073
 S           1.07769028038869   -0.51619323410525   -0.77993388972187
O           1.78921284834174   -1.88952578702919   -0.85329762949233
O          -0.31981003259035   -0.72164716118756   -1.21148532760079
O           1.08302842754294   -0.08564086069394    0.62512723633925
O           1.77832906480230    0.41716021368705   -1.62349602675904
O          -0.16502779955200   -1.72033283967776    2.24654325101513
H           0.35825945924364   -1.11437639589966    1.66840948828285
H           0.45014902809048   -2.06157162377544    2.89760950317762
O           0.78297368526669    2.82435705957941   -1.58269627008868
H           1.23262417280512    1.95187660265932   -1.71969004551852
H           1.31889918092744    3.28833978301220   -0.93630040887087
O          -0.85826237039821    1.29032136803144    1.78787115530303
H          -0.01742179435048    0.91023268463018    1.44805550045354
H          -1.25544898883413    0.57676319707681    2.29574457568407
O          -0.33861687102557   -3.13843177874413   -0.06576617771216
H           1.09472044167540   -2.53874113849140   -0.55699378704317
H          -0.42642587404392   -2.83374139507640    0.85860468957979
H          -0.74448948444945   -2.44055956758178   -0.60339545810975
N          -1.40586464850271    1.57889870645593   -0.78611436774583
H          -1.06421584578637    0.59788606331721   -1.05433471053939
H          -0.64909918146416    2.23359741964938   -1.12916962813494
H          -2.30997931058136    1.79435177405648   -1.19120393377302
H          -1.41122438751695    1.59697692009909    0.26591226127558
