    23
        -45.37874221  Gyration_radius:  2.34142729131 Dipole_moment: 4.656
 S           0.26836179916165   -0.14349079876794    1.08047887014790
O           0.22829575298182   -1.24461244923826    2.16755029245948
O           0.32083165469979   -0.80161920542086   -0.22898322412616
O          -0.95090059834196    0.65809487275152    1.18898577611580
O           1.46013256784020    0.65849461924887    1.31558483786358
O           2.23645971245922   -0.41484275935735   -1.98337960060486
H           1.48621998074674   -0.66193532966901   -1.39009807701107
H           2.96484640849004   -0.98493998038391   -1.73203059276423
O          -3.12679464634388   -0.82667236976985    0.96030450933804
H          -2.37472782982279   -0.19895991313139    1.03949714347393
H          -3.66047166269911   -0.70045295798805    1.74644289015719
O          -0.86919107687304    1.83397280066606   -1.15050890127030
H          -1.00589526893272    1.49485376625683   -0.23367011855079
H          -1.10192276336446    1.09839307780197   -1.72273896383757
O          -1.27360059967954   -2.75669634538654    0.73502212817688
H          -2.11466548612375   -2.25545634535302    0.78309602623737
H          -0.77673053446974   -2.34371019168328    0.01262728586099
H          -0.35355561571362   -1.96070103524427    1.77443396680641
N           1.75477472389208    1.94852188771856   -0.88960951376381
H           1.74314211637181    1.53016940276398    0.09931491826378
H           2.28325623458622    2.81148427365754   -0.94876098352250
H           2.13260391020135    1.18467829770879   -1.49948154356339
H           0.72953121094003    2.07542666282062   -1.12407711588560
