    23
        -45.37779395  Gyration_radius:  2.37691591936 Dipole_moment: 6.143
 S           0.24870409153343   -0.14485233349110    0.94072449967246
O           1.51637153160532   -0.69131320503329    0.50493096417789
O          -0.84898135387310   -0.67651531093358    0.10004861714312
O          -0.00872458808347   -0.61650859504828    2.38886310030930
O           0.22721100460123    1.31416255266062    0.90841001440608
O          -2.96292227078535    0.76611111632559    0.83649064543190
H          -2.26094784360970    0.14483963997790    0.55200242059603
H          -2.91454478169479    1.51347713347558    0.23715125407115
O           1.52001375454048    1.52872160498520   -1.36216065462081
H           1.02385122059557    1.59533854159286   -0.51112929165575
H           2.39485857472986    1.22676003919981   -1.10289048538935
O           2.05941268631494   -2.38142378988865   -1.42964258878595
H           2.00745624525545   -1.80035591034632   -0.63428027574934
H           1.87475604956013   -3.26815736310565   -1.11567711650570
O          -1.47737709289394    1.40110513467312    2.99093380253865
H          -2.24848028615222    1.20337738802670    2.41968875520900
H          -0.61480101787848    0.07319242440490    2.79484928550329
H          -0.85556527058579    1.86592442192171    2.41016401083569
N           0.24854735519308   -0.61649980275473   -2.23188774351515
H           0.94194498724496   -1.40219530357334   -2.18471798744194
H          -0.30242891942138   -0.62098689582304   -3.08295569179626
H          -0.34554337921226   -0.70655407971248   -1.34498407003482
H           0.77718929301659    0.29235258246819   -2.08393146439842
