    23
        -45.37884010  Gyration_radius:  2.38654332606 Dipole_moment: 5.866
 S          -0.66952470605968    0.21329666889390   -0.66483315470916
O          -1.71887507148865    0.29908917520547    0.32850535650899
O           0.26801388075879   -0.88057476936671   -0.31559757851345
O          -1.30865896470700   -0.16287767790268   -2.02288543134501
O           0.06030796581027    1.46454507421549   -0.82274693516044
O          -1.91419959447730   -1.06100339925885    2.57054724867229
H          -1.99507478781712   -0.52635247224623    1.74511610973894
H          -2.32800014617121   -1.90323638786499    2.37556145497053
O           0.08304797043585    2.14428293957867    1.69884718717331
H           0.15468484043773    2.03805909937155    0.71925621114587
H          -0.86065476257264    2.23203748432088    1.85977574100898
O           2.01198529463027   -1.25531691432324   -2.28212365799044
H           1.42566074766341   -1.14727050126332   -1.50259573335402
H           1.81516774894517   -2.12037287564345   -2.64582196243789
O           0.64951733943020    0.80401243963922   -3.36313051078686
H           0.70588931771768    1.42263770867675   -2.61820876637767
H           1.31818859487067    0.11317019904216   -3.17409152906924
H          -0.64864628660771    0.16618420992571   -2.70701368210636
N           0.62264640616892   -0.38270960677627    2.19692807728215
H           0.61644954812724   -0.68729675463295    1.17241852329507
H          -0.26190668700261   -0.76888945972843    2.60386307283080
H           1.45635132063378   -0.67782880300177    2.69269414634724
H           0.51763004127152    0.67641462314030    2.15553581288108
