    23
        -45.37182640  Gyration_radius:  2.39870475956 Dipole_moment: 5.918
 S          -0.80596320340725    0.26934551447045   -0.34388933770578
O          -1.71308637177695   -0.33518023039988   -1.29011831492062
O          -0.95606324558516   -0.35301629808546    1.00118941263844
O           0.62928704024022   -0.16715807861511   -0.80779636592823
O          -0.85762476164897    1.70676273489858   -0.26809656325944
O           0.30388498150014    1.59265442297035    2.33597455251875
H          -0.23790531435190    0.85709533732082    1.99371969252290
H          -0.10697894358875    2.38478756266377    1.97780526789546
O           1.19195129360571    3.29822756713768   -0.85899381105780
H           0.35929988942844    2.82065890144092   -0.66003529499637
H           1.21210008679936    3.40899278471555   -1.81042886313247
O          -1.82773803399268   -2.90503883427401   -1.50759834219248
H          -1.80795458847900   -1.91067511890530   -1.57142690402895
H          -2.74390195091319   -3.13028242487896   -1.33507517735449
O           2.23491193795646    1.24719587233797    0.53041222288612
H           2.14346385596126    2.09055858121984    0.04212706799503
H           1.70072660868992    1.37832678578035    1.34869964739126
H           1.32398097719713    0.39207366978294   -0.29030829145476
N           0.01305171641513   -2.57327026695358    0.32128040686215
H           0.28043641308234   -3.26561997750853    1.01325622311767
H          -0.71059281848079   -2.92559905772946   -0.37383035406995
H          -0.44114374560804   -1.65783780545057    0.75751913166278
H           0.81585816695681   -2.22300162194331   -0.20438599539444
