    23
        -45.36804239  Gyration_radius:  2.35872047592 Dipole_moment: 4.835
 S          -0.73290125950396   -0.61714272514052    0.52274143555436
O          -1.80501540750275   -1.27627287940481    1.39362197552096
O          -1.03224616420969   -0.82509762091169   -0.87098413334895
O          -0.87061815882943    0.86312382008095    0.86202193542853
O           0.56649988461388   -1.09123611219889    0.93361089244525
O           1.02522890587534    0.39163156797382   -2.17761570335958
H           1.74763891345269   -0.22438271055587   -1.94027411540269
H           0.21001873107432   -0.08268302555951   -1.94501581177426
O           2.56641051880399    0.61685926077500    1.46059385408605
H           1.86748870971788   -0.06425557857443    1.38877409563086
H           2.62970421606302    0.84737199672174    2.38854028214634
O           2.69371388032134   -1.28406786159492   -0.85109492082498
H           1.95211922414185   -1.51440872276023   -0.27164045673332
H           3.28101703729343   -0.74313734877355   -0.31455785505275
O           1.00430283936395    2.06203176191637   -0.19797586035960
H           1.06314247893298    1.55855397097029   -1.06604201100858
H          -0.07953588166014    1.46625582694298    0.39887460358036
H           1.74729529610199    1.73518209339218    0.35145215422727
N          -3.68586369246115   -0.32743142775015   -0.04805560569155
H          -3.04277399084854   -0.38796226653411   -0.83279047753795
H          -3.86763203115204    0.64771472488326    0.14927775194865
H          -4.55560440273844   -0.78538816446373   -0.28656942692947
H          -2.68238963684609   -0.96525854943896    0.95310741745748
