    23
        -45.36822920  Gyration_radius:  2.41537007751 Dipole_moment: 5.000
 S           0.76253768277584   -0.36687124642036    0.33132664588594
O           0.75872529123595   -0.92107411912354   -1.03672736266520
O           0.21143692070478   -1.31023061396047    1.28336945967292
O           2.05503645914005    0.16533497120695    0.69285370832000
O          -0.18933738385918    0.88124658040393    0.26291840921422
O          -1.72930600955197   -0.47904169097840    2.92885182540968
H          -1.35463354331010    0.18927263658124    3.50417630878684
H          -0.97501495705700   -0.86661798870001    2.43902933167856
O          -1.80651736317981   -2.47543424118625   -0.03674506652988
H          -2.13839426094129   -3.11514750210895    0.59709986146070
H          -0.94159481975358   -2.18105094312458    0.30903192300398
O           3.08274663294422    1.85525864352049   -0.97211030937882
H           3.94762154486913    1.49441913370873   -1.17617708258495
H           2.73067223226590    1.28874357615837   -0.23227625378686
O          -2.58274842509007    0.04718168626107    0.42049655857680
H          -2.58563273193246   -0.05056845494659    1.39346594582035
H          -1.16545607112770    0.57624481008125    0.29611930628819
H          -2.48987923601271   -0.87080604597850    0.08345723768636
N           0.87348720169926    1.25428445832917   -2.26346810917604
H           0.78687399125908    1.27344429842033   -3.27393065094325
H           0.13143206207905    1.78294096477646   -1.80831649337315
H           0.81023496867864    0.21287412033733   -1.82405787782774
H           1.80770981402805    1.61559695669151   -1.91838733550164
