    23
        -45.37761809  Gyration_radius:  2.32977270482 Dipole_moment: 6.024
 S          -0.74845491185988    0.67919690198405    0.74734131102021
O          -0.81601207856640    2.16422323398096    1.17875629044160
O          -2.10791138426341    0.20563518040896    0.54488949327495
O           0.00047938359116    0.61795287811973   -0.51986944695844
O          -0.03872225931231   -0.06744307881005    1.77964933280902
O           0.55813473816594   -2.23729267249348    0.47473622667606
H           1.33177659987851   -1.95019515428846   -0.01586590600136
H           0.36142852422845   -1.49047251393654    1.09445429323373
O           2.44525903441899    1.51322977021655   -0.14295580785863
H           2.53132141156917    2.28442933289071   -0.70622676054518
H           1.55384843836638    1.13874968432948   -0.32804840428459
O          -0.78731713404492   -0.43863151528275   -2.79940734489295
H          -0.52424816195062    0.09716550468500   -2.01475491764860
H          -0.00631922183720   -0.50660891796464   -3.35090733293194
O           1.48847172580870    2.07394052224599    2.32302261903707
H           1.20599407048774    1.17722063026170    2.55869293968658
H           2.06051062113098    1.95672865883865    1.53644894774256
H           0.04385186318657    2.32279843821951    1.66940460763455
N          -1.73236427639574   -1.94607900706379   -0.82023981963905
H          -0.83749192495067   -2.25864535933717   -0.35021294549255
H          -2.44074899283022   -2.67105472070356   -0.84448680976345
H          -2.04518610695240   -1.09057484089044   -0.24755492046758
H          -1.49629996797738   -1.57427295524346   -1.76686564512767
