    23
        -45.36822961  Gyration_radius:  2.41540572285 Dipole_moment: 4.994
 S          -0.28195992164917    0.64104907480638   -0.58231208543803
O          -1.17252323085644   -0.47952425096348   -0.94267763375062
O          -1.00810407619060    1.88048342679488   -0.43709618563458
O           0.23347258195232    0.29714226643505    0.86154277300456
O           0.86071767675389    0.71241749524250   -1.47064184391154
O           1.49967213680663   -1.84867678667108   -1.92900675306395
H           1.09099246810960   -0.96187861761429   -1.90306904302648
H           2.24209754854496   -1.77758941012084   -2.53310932616582
O          -3.05068621710667    1.80822354059201    1.14598440913999
H          -3.77796983887508    2.13513194507375    0.61294605065914
H          -2.23451015344030    1.95668216948008    0.59443936909675
O           3.31345640629934    0.81596599245509   -0.40355972556826
H           2.46969802839542    0.86446167293107   -0.89838955288733
H           3.39020441228090    1.64601620253136    0.06876731020059
O           2.12763298201198   -1.37922096257698    0.63211439313598
H           0.98120140013769   -0.39868069508208    0.80573337017312
H           1.91366837982714   -1.79611757406763   -0.23131064490428
H           2.81552987115053   -0.71816097827646    0.41780967588588
N          -2.31063265503779   -0.71074309700081    1.27147953890274
H          -1.51562828201958   -0.73725417095652    1.90747686342255
H          -1.86199140365895   -0.71012402686998    0.23223477758873
H          -2.95180509828299   -1.47958799656516    1.43483925743973
H          -2.77253299486885    0.23998479030493    1.34580501581528
