    23
        -45.37283603  Gyration_radius:  2.30732583803 Dipole_moment: 5.019
 S          -0.45298206958722   -1.14975668798948   -0.76152239558784
O          -0.49955762842899   -1.38406954184593   -2.18138336276078
O          -1.67054869688111   -0.51225277706384   -0.24557951730559
O          -0.30239298667341   -2.51231605198884   -0.03462485592184
O           0.71795058769258   -0.33058632854445   -0.39099401442455
O           2.32258604277495   -0.68718337064447    1.68109585919644
H           1.89339441854019   -0.63758600898937    0.79986262616569
H           2.45892178944329    0.22368102089377    1.95261382614571
O           0.27446299140673    1.02046355960938   -2.87110898757928
H          -0.03711040960830    0.08509666082342   -2.80288090111135
H           1.14796170153074    1.00222141055144   -2.47002953880503
O           0.09120683656667    1.66909314997243    1.18651781079187
H          -0.46550436982650    1.26192629220862    1.85443004215293
H           0.39682490000199    0.91651138476893    0.62372991062440
O           0.06726405016009   -1.84040511187617    2.47824470268111
H          -0.26565748784434   -2.28241463785296    0.92862737494147
H           0.23023885600249   -2.64792578313773    2.96980605502727
H           0.95131051164426   -1.42735395905312    2.32149622999830
N          -1.39455839956256    1.89379898764980   -1.02060910671245
H          -2.17331427010218    2.50001682687842   -1.25153402353272
H          -0.74231777586318    1.73054367482787   -1.84162082512296
H          -0.84974794875309    2.21763008238795   -0.19376672613829
H          -1.69843064263349    0.89086720841235   -0.73077017271908
