    23
        -45.37069661  Gyration_radius:  2.39967797365 Dipole_moment: 5.475
 S          -1.06639814580785   -0.27898973268233    0.17254093652896
O          -0.13987326388765   -1.26762251892756   -0.42641540657250
O          -1.32054045444452   -0.67261521636400    1.62908928572419
O          -0.40975267057250    1.04404750889291    0.15237484116553
O          -2.32522594784603   -0.25661986162488   -0.53026724906828
O           0.96176014307439    2.09552389195820    2.16433748456792
H           0.35847253271288    2.65907134265196    2.65153725195136
H           0.46762651073329    1.78925616391225    1.37410040430281
O           2.10091858676325   -1.79794594535024    0.84502027514198
H           1.27662787929672   -1.63524134073623    0.33221713661506
H           2.13670013838294   -2.74424397501112    0.99471682799607
O          -2.07432518055940    0.40368214449641   -3.04270059126161
H          -2.29634654270046    0.22622617052948   -2.09187755288925
H          -2.51332352275723   -0.28833639844454   -3.54068014279218
O           0.88409673718546   -0.49474474436273    2.85765032069200
H           1.49818275092432   -0.95048941936614    2.24322567939370
H           1.07218285837576    0.46374712266714    2.76216730010626
H          -0.44295853421189   -0.62762285192184    2.17329138099411
N           0.40909149495065    0.48261776461174   -2.19640534730615
H          -0.46426569724079    0.52131532861061   -2.78785882789081
H           0.21844164861822    1.07945871425802   -1.34122303171602
H           0.40236843693078   -0.45914177995553   -1.70614501177931
H           1.26654020208198    0.70866764214976   -2.68869594390365
