    23
        -45.36823136  Gyration_radius:  2.32623104921 Dipole_moment: 7.051
 S           0.64559701582043    0.00712330678731   -0.63575774565850
O           0.64499459739416   -0.48315402796879   -2.00987646028951
O           1.20671227083011   -0.95607672807688    0.30179172850549
O           1.49744072573812    1.29542444995454   -0.58617341041828
O          -0.73052483880278    0.35882229943920   -0.24001285133750
O          -0.55804470827796    1.53621618880915    2.22050341143008
H          -0.75205105575967    0.94247927629484    1.47472086212808
H          -0.75203352910464    2.41747234054661    1.87230227429774
O          -0.75301700498746    3.12121247075055   -0.13225561583137
H          -0.86147463886814    2.17386056878435   -0.31091244087804
H           0.11451440092767    3.34537741769028   -0.47630813456568
O          -0.16200628027440   -3.17588769770201    0.06614820098009
H           0.37419100591606   -2.36881565387440    0.27407101505300
H           0.47426654682575   -3.85203366821107   -0.17481719688775
O           2.03663342193237    1.11545486887158    1.88248419716731
H           1.13954605451710    1.34567297616483    2.22992857008553
H           2.02876222330428    0.15427090207898    1.77620235618785
H           1.82303246479404    1.36130042495695    0.37921540356128
N          -1.53660247021270   -1.69898574008240   -1.61218581562033
H          -2.29183734182178   -1.95301764138217   -2.24002488419245
H          -0.64994299752041   -1.29139041637171   -2.07795753552717
H          -1.75789394243064   -0.90698727281723   -0.97616502952788
H          -1.18026192995016   -2.48833863464177   -1.00492090865207
