    23
        -45.36823137  Gyration_radius:  2.32622656921 Dipole_moment: 7.051
 S          -0.14903250940415   -0.53632675386070    0.71510941695928
O          -0.98857430618854   -1.71953008657677    0.86915738033010
O           1.23758681607661   -0.86890006976278    0.41792404147551
O          -0.70382092399485    0.32373172091722   -0.34628882165868
O          -0.19124468434510    0.25799220926774    2.03990301723635
O          -1.74913813330686    2.50887525660144    0.98618629272031
H          -1.55765440495836    1.70640260333054    0.47574259486225
H          -1.65066041315674    2.25263350697673    1.90590441373711
O           0.76719295687723    2.62718006221638   -0.33273875986166
H           0.04828873470360    3.14787657826154    0.05138764117440
H           0.34375998296872    1.78439464281268   -0.57091783518109
O           1.24833451278272   -2.35134251261354   -1.74051042589902
H           1.35653910167530   -1.75052245847230   -0.95985739404893
H           1.66914944925034   -3.17618436482444   -1.49025443659397
O           2.02337993812728    1.43137651397014    1.67116091064619
H           1.72894126576791    2.04515166858124    0.95348430678298
H           0.67913445756098    0.79136266444308    2.05736441100478
H           2.32728675688816    0.63462494382760    1.21502506137675
N          -1.32542598154820   -1.84942508234414   -1.63393161295041
H          -2.08726604901764   -2.21647343765305   -2.19424290014729
H          -0.36422100868998   -2.18977981694727   -1.91507465027545
H          -1.27942683132860   -0.81131437191785   -1.60309214200028
H          -1.38312870674981   -2.04180340623211   -0.57144052968196
