    23
        -45.36823137  Gyration_radius:  2.32622554091 Dipole_moment: 7.051
 S          -0.03519153605237   -0.85319166580347    0.30318966636443
O          -0.50182620141498   -2.07983748522917   -0.33410231949443
O           1.17864980169260   -1.20582666654290    1.19203995535917
O           0.42082387031743    0.09378850736518   -0.73089027909311
O          -1.05565608853631   -0.23261846871567    1.13696393957337
O          -3.15284342684639    0.19676763317256   -0.37098879362771
H          -2.39544072261288    0.13389904576910    0.26500840435617
H          -3.87469154983322   -0.28215037830436    0.04091523144738
O           1.54080670160718    2.20952346811855    0.58789500111478
H           0.97683655641115    1.63477424163709    0.04205991540589
H           2.44038447473472    1.96183485482689    0.33314839865863
O           3.17387042024976    0.14246054440510   -0.48267278177895
H           3.33213451285453   -0.54895958266106    0.16395570514892
H           2.24146611958388    0.04865614778169   -0.73363572817521
O           0.91606482607350    0.78643312433575    2.73455890351569
H          -0.03948942730419    0.71428902360718    2.60431015377666
H           1.20240503636560   -0.47942400629818    1.90906895397624
H           1.21278499305172    1.48429642673297    2.09940445961400
N          -1.54254118397957   -0.74807978880916   -2.21536378312333
H          -2.36785403341608   -0.33962097681331   -1.69494534240921
H          -0.74545182310866   -0.09588853305100   -2.07378951224690
H          -1.20098209834404   -1.56138190006210   -1.58999149563217
H          -1.72425922149560   -0.97974357546250   -3.18613866273024
