    23
        -45.36823137  Gyration_radius:  2.32622514648 Dipole_moment: 7.051
 S           0.42782444462447   -0.74816134288178    0.27989329049967
O          -0.04310247486114   -2.11951078043696    0.44166764619911
O           1.08522119564136   -0.52974144626578   -1.00141584022964
O          -0.70649860642075    0.18118133212769    0.43376336480485
O           1.44036245852810   -0.45199362465300    1.40899986488599
O          -0.60914849021356   -1.19991645056788   -2.88197860979666
H          -0.17811715612053   -1.89022758929888   -3.38968451130997
H           0.07864488572343   -0.86478201432080   -2.25211138798594
O           0.34353181032548    2.70443514382128    0.41173491587581
H          -0.14414718908020    1.88806895224650    0.20669886620936
H           0.19135317738865    2.83442238756306    1.35801045079495
O          -0.28322631739801    1.41882265072398    2.86938920777629
H          -0.57919913597129    0.91157903848654    2.09720174053377
H           0.47134580640422    0.93629356635601    3.21439294886262
O           2.63650943571251    1.39952609615103    0.16060619115034
H           2.03696760310259    0.29092121217528    1.04226154767641
H           2.45476815870429    0.91532798534924   -0.65656348111169
H           1.92297869018024    2.08182667042108    0.22234935881049
N          -2.17292467050771   -1.57263845017395   -0.80756071797529
H          -1.40815363437986   -2.08945554479204   -0.24431334020812
H          -3.10650201314239   -1.96595023941819   -0.75439828555404
H          -2.07986833461139   -0.63292127139365   -0.37279984313788
H          -1.77861962362796   -1.49710628121865   -1.78614338676926
