    23
        -45.36683668  Gyration_radius:  2.44281075402 Dipole_moment: 4.877
 S           0.14678081214948    0.89026516020712   -0.31802869012161
O           0.43011002118619    0.41611850590070    1.04447425742757
O           1.40130143127357    0.61066248683404   -1.18343552101730
O          -0.98040376670614    0.16556453751333   -0.89676774314273
O          -0.08616743215912    2.33299649482590   -0.29636748065740
O           2.52534158786568   -1.19742415155784    0.76835733798901
H           2.99425199809955   -0.66580024920165    0.11934738423896
H           1.74486449362499   -0.65669662378810    1.00950971712478
O          -3.13067249189355    0.76475074403254    0.47760833971549
H          -3.73164290323329    1.15519808701826   -0.15983364183289
H          -2.36814566731125    0.42196974888398   -0.05439790239532
O           1.43043176655836   -3.20084746995295   -0.63201504707353
H           1.81861054871791   -2.53880215562488   -0.01405766068453
H           2.13295188031131   -3.81790205577349   -0.84214726289115
O           0.55222904447721   -1.42517799265404   -2.42555767452678
H           1.17576296075928   -0.18968721046520   -1.77868469574676
H           0.82748446855776   -2.17635237770269   -1.84941063242831
H          -0.31655771222808   -1.14589513558901   -2.09681126617270
N          -1.34130420937993    2.08573263383995    1.88251460094018
H          -2.23830077201401    1.65514364711333    1.53317892699111
H          -1.44672381801338    2.69692315028056    2.68471858105132
H          -0.66225832129538    1.29894183163049    2.01748659446022
H          -0.87794392930984    2.52031838429567    1.01031947881276
