    23
        -45.37874211  Gyration_radius:  2.34168577046 Dipole_moment: 4.660
 S           0.38862524219483    1.02005699629260    0.25466644893586
O           0.64725073563050    1.90563898568283    1.49751234126516
O           1.43473207793061    1.31238231440686   -0.71431228024684
O           0.43548786154504   -0.38245029196256    0.68032181485817
O          -0.93851979552998    1.33891172483963   -0.27214056853046
O          -1.28542705069439   -0.76880000130068   -1.78912452391912
H          -1.43499956357635   -1.44184270525916   -1.12021827708262
H          -1.27379990075090    0.08402153955901   -1.29231307671122
O           2.08015063893955   -2.16176839463652   -0.33274949019831
H           1.44448501674757   -1.57308741882629    0.14202772398283
H           2.91874252243936   -2.05668103540208    0.11950987116213
O          -2.82592794277841    1.00777590552006    1.54953835895639
H          -3.29271718265327    1.83863757426988    1.65232750904729
H          -2.19435765906623    1.14163296617056    0.80851415806381
O          -0.68844134074510    0.33583773818626    3.02890830090875
H          -1.59695091108235    0.52271785542720    2.71146750546135
H          -0.34382982231553   -0.33624556149769    2.42156197323356
H           0.16846036761504    1.43434784420150    2.24224608161727
N           1.28856001278826   -0.65609684986489   -2.36249806092337
H           1.44352865015055    0.24645365423518   -1.80154236081833
H           1.64677097223991   -0.60117290233870   -3.30917311903055
H           1.73829267323580   -1.40888909999690   -1.78874488222235
H           0.23988441770343   -0.80138086771841   -2.32578543779369
