    23
        -45.37771074  Gyration_radius:  2.34928443182 Dipole_moment: 5.305
 S           0.24438751094362   -1.15346324061510    0.18819467016986
O          -0.24975627139467   -1.13068559396325   -1.19067501685257
O           1.69139103097603   -1.28905370430057    0.23166357019018
O          -0.20239433446175    0.05088092330140    0.89512286761415
O          -0.36706658253693   -2.38500093726742    0.89902638379282
O           0.46408879993013    1.27101365660027   -1.93296387080521
H           0.20088326734799    0.32914683169549   -1.78758767381345
H          -0.28692079119411    1.78633694582090   -1.63026998215077
O          -2.88344346479753   -1.00137191158479   -1.32704506549152
H          -3.18897613134207   -1.75027145836289   -1.84147187061998
H          -1.90109313411796   -1.03178406202691   -1.36330125108517
O           1.32841883248486    1.90076243643335    1.95347320142797
H           0.72904123950582    1.16083837870989    1.69261752163239
H           0.75880666100918    2.63296927044210    2.19409691926041
O          -2.57672343656078   -1.14113586472469    1.34327267857440
H          -2.94169571592004   -1.08710576978997    0.43553988486882
H          -1.28884748383685   -2.09200033837607    1.15635630115686
H          -1.96201419828216   -0.39427910860593    1.40934889983399
N           2.52431106425645    1.09028435322942   -0.27478512449510
H           1.81835307191126    1.32266220167687   -1.02377338865534
H           2.33228015998114    0.05417940018533   -0.05375526924295
H           3.48102098193435    1.24839075833508   -0.57065477059130
H           2.27594891415700    1.60868682319503    0.59757039528612
