    23
        -45.37874208  Gyration_radius:  2.34160364082 Dipole_moment: 4.658
 S          -0.34775194943650    0.89691160844899   -0.57515169811346
O           0.29954226576827    0.49782897120600    0.67871723024021
O           0.12482580622415    2.32929977457949   -0.92221010057644
O           0.06102288134323    0.00040385679503   -1.65672942922246
O          -1.79564720610753    0.93825701614179   -0.43130585586160
O          -1.01517061770006   -0.22765106797205    2.83332755841841
H          -1.27152613114743    0.57613162151357    3.28830711532210
H          -0.42168350795925    0.05905367224432    2.09737841324731
O          -0.21823287481432   -2.28615787036450   -0.40833660672551
H          -0.10378860197899   -1.50886037797851   -1.00572041188018
H           0.53283024671063   -2.25015875800826    0.18952655960924
O           2.67273539468317    0.07553406035355   -2.06246656812448
H           2.82725818831968    0.32122203901119   -2.97599340610699
H           1.69967999446780   -0.02749743744433   -1.97041852454721
O           2.50313010225397    1.86831741378882   -0.07095679004188
H           2.02901099617024    1.29523186655920    0.55033370915415
H           2.82224913832922    1.26816712202017   -0.77733197594572
H           1.09131648189790    2.34355504287492   -0.65455573939945
N          -2.33780339514841   -1.26150882524291    0.78511897068934
H          -2.28456794339867   -0.33911292378713    0.23772378176283
H          -2.02399712189798   -1.01640604836734    1.75443372423966
H          -3.25641232608808   -1.68895789115916    0.75384462790357
H          -1.58701982049851   -1.86360287522279    0.34246543595548
