    23
        -45.37874212  Gyration_radius:  2.34144278163 Dipole_moment: 4.658
 S          -0.02327997992026   -1.11302771190488   -0.13619901241748
O          -1.25092824907005   -0.88866296989474    0.62752279394881
O           0.39382092247364    0.13073577372363   -0.79164389214881
O           1.03917870603188   -1.64943756548175    0.70180902031378
O          -0.31721545142572   -2.15892308139761   -1.23857313543554
O           2.69317995348037    1.31748576920481   -0.34234837173317
H           3.34597304368991    0.87852180337127   -0.89007518598844
H           1.82046341715964    0.94208636626150   -0.61348594540837
O          -3.24418329000921   -0.10808130582486   -0.92403678740068
H          -3.96860652737571   -0.72625692279332   -0.81520791912301
H          -2.55861941459442   -0.37689937238846   -0.27311668268404
O          -0.58693551057398    1.35540855640525    1.80519047581263
H          -0.63516161083822    1.96240409753910    1.06222717979885
H          -0.95204712208946    0.50512905001025    1.46181868869500
O          -1.34009454064105   -0.39177458254209   -2.79567559293557
H          -0.75222072526270   -1.63139125269156   -1.97231675899463
H          -2.17864130242628   -0.21284208438972   -2.32058471244409
H          -0.68270152972610    0.17689704068046   -2.36701451886907
N           1.86814261335271    0.40744802158272    2.00370179183949
H           2.36665623542685    0.33068074996355    2.88295627614880
H           1.60732731347825   -0.54592776304793    1.58383378889592
H           0.93851793878128    0.90666263141808    2.09842920293837
H           2.41737509000825    0.88976473212894    1.25278930719438
