    23
        -45.36364687  Gyration_radius:  2.45419169311 Dipole_moment: 5.099
 S           0.81318695254168    0.43723377708369    0.56573150203643
O           1.55148858447354    1.76843729598536    0.78236684155028
O           0.60589070030435   -0.20503391232393    1.83375075484609
O          -0.57635667652649    0.84605824000683    0.03020604340143
O           1.50188649715369   -0.31087039254056   -0.44396504020422
O          -1.37696500981881   -1.85436497528873    0.94591706236370
H          -0.67828621513296   -1.39318906276583    1.43639443512904
H          -1.93827427711404   -1.16705920050094    0.57835519568038
O          -1.18722251591247   -1.33476822538073   -3.10829398552741
H          -0.99195182422706   -1.75254193690122   -3.94826211534028
H          -0.75022321223739   -1.89377763558773   -2.41340659951587
O           0.13120810690430   -2.59177997249292   -1.20148231027497
H          -0.46604172742476   -2.59891035584713   -0.42970955569880
H           0.81394593372469   -1.94079374974471   -0.97931247767065
O          -0.01513492754062    0.90674233291565   -2.40235625389359
H          -0.53640497774277    0.14046761858181   -2.76681104548848
H          -0.46923801636781    0.97039143590403   -0.99891606007242
H           0.86153874793311    0.55182201230758   -2.20322264098484
N           0.50197118752986    2.35440441843032    3.04221763325758
H           1.19849945192809    2.15569697924371    1.67160905359947
H           0.31896083321337    1.36289939409103    3.16874455288741
H           1.06342265148196    2.69290458362926    3.81219595693929
H          -0.37590027714296    2.85603134119202    3.02824903298839
