    23
        -45.36364687  Gyration_radius:  2.45423722147 Dipole_moment: 5.101
 S          -0.30764642080121   -1.01019734809345    0.23956077600676
O          -0.75423680328218    0.43789408047705    0.53681754507584
O           0.69566367506909   -1.35117082466014    1.20930206402028
O          -1.56471958103465   -1.86098201040346    0.48465345673482
O           0.05429718936439   -1.11343714108333   -1.14312696567318
O           2.10117799244933    0.61270260093015   -1.84047832749105
H           1.49746141562139   -0.14196500392182   -1.76771203458607
H           2.38080933058767    0.79672517107309   -0.92381332972832
O           0.43441140157259    2.55428916630509   -2.47855276794784
H           1.14108225467104    1.89279218315974   -2.25650242769950
H           0.56872607485763    2.78965938143871   -3.39766365102118
O           2.14680980032788    0.93291133947655    0.86620308248476
H           1.42377740493749    1.54768921162387    1.01400077786400
H           1.80282883035327    0.05661679089107    1.10107387750699
O          -1.57548956566961    1.03092376186451   -1.74571497632602
H          -0.91635395469430    1.71449748429208   -2.04555643247753
H          -1.24229282025451    0.18682209953208   -2.07841752078076
H          -1.18606021764567    0.79771997920943   -0.34072428232860
N          -1.37483821912724   -1.98860253928798    3.03406737903067
H          -1.79222243416063   -1.23784927420257    3.56765866305937
H          -1.64375910661364   -1.97571592172141    1.50740397585472
H          -0.37987644929982   -1.81120822725857    2.92838988273857
H          -1.50954978722366   -2.86011495964515    3.52913122568518
