    23
        -45.37884006  Gyration_radius:  2.38668589466 Dipole_moment: 5.865
 S          -0.63060174151755   -0.39215225774672    0.61846735268200
O          -0.83606815425024   -1.11958475712757    1.96863110790440
O          -1.47738527104759    0.78164920851202    0.59569384884888
O           0.79439827672450    0.01246504728702    0.56292300770619
O          -0.92787469194772   -1.32225094967146   -0.46303657488635
O          -1.39575890381393    0.46703309074251   -2.30711910283300
H          -1.26015372067009   -0.32451910203606   -1.73176530106507
H          -2.15657563490916    0.91215334268247   -1.92345281240748
O           2.35869823520017   -2.10272723860005    0.92099398740716
H           1.84347302914724   -1.28622683413561    0.74498302950502
H           2.79761114565446   -1.96485455205025    1.76225602263928
O          -0.73757717419731    3.28411132687436    0.27279582291122
H          -1.14618761829571    2.40489115606533    0.45651948062116
H          -0.47731346944215    3.63268987451819    1.12684495836896
O          -0.02117415509196   -3.36299715136822    1.03675064266857
H          -0.40271463985814   -3.02930836740166    0.20978159580806
H           0.93607117193347   -3.16241528559096    0.97702608829018
H          -0.56108469372390   -2.06927351897672    1.78285544560037
N           0.69348099082983    1.74951801913845   -1.34980513107054
H           0.90514884004361    1.03313260355175   -0.58516529486228
H           0.29178093813121    2.57661898398100   -0.84814105868691
H           1.50397660461564    1.97617754993097   -1.91520230968070
H          -0.09416937351328    1.30586983142331   -1.91283481546718
