    23
        -45.37874208  Gyration_radius:  2.34154702084 Dipole_moment: 4.656
 S          -0.20313921813362    0.83922040922199   -0.71453940694005
O           0.61548472210713   -0.05031810744436   -1.53872865025530
O          -0.79462438077932    0.08898453590905    0.39798237632632
O           0.56249949549526    1.97982661623074   -0.23335819536964
O          -1.35718507361210    1.39002599106352   -1.58662047266746
O          -0.81313094198789   -2.01289862969744   -2.58648119473714
H          -0.20454194049063   -1.32954836187175   -2.22783484933352
H          -0.71815640757542   -1.97742126041101   -3.53963268341962
O           1.90410192470252   -1.29349200995539    0.37401004654344
H           1.20141139389760   -1.84654118498713    0.72499341377495
H           1.52272120949555   -0.88625232988578   -0.44019095239467
O          -0.35701111847351    0.64255402682655    2.92776750555412
H          -0.95293898549005    1.35478573333349    3.16526544810326
H          -0.61911223931112    0.36725138343741    2.01586925315701
O          -2.76388467655614   -0.73285742969294   -1.25831966522351
H          -2.32464495244859   -0.73291103212862   -0.39444534970354
H          -2.04066362495491    0.65593916257209   -1.58650118826958
H          -2.24914288866292   -1.36308701716308   -1.80506882171634
N           1.95723844783591    0.99439687258891    1.68907128406215
H           2.81191488372432    1.42778565985704    2.01954988124246
H           1.48937374852801    1.54151560013895    0.89209821540241
H           2.11514491767651    0.03109526074801    1.27763948503198
H           1.21828569501991    0.91194613125634    2.42747451079274
