    23
        -45.37811683  Gyration_radius:  2.37730845834 Dipole_moment: 3.953
 S          -0.37645533315499    0.67057017187936   -0.49520073689339
O           0.93432885384469    0.55814737661402    0.17537013404186
O          -1.43916389520729    0.83748758245812    0.47338869583405
O          -0.35084598716764    1.94373504129088   -1.37203005589800
O          -0.59767565411519   -0.48754141523908   -1.36184485948390
O          -1.22277659569438    0.92431330456181    3.08957281671411
H          -1.44474854212145    0.97987097876262    2.12959418341976
H          -0.91652021013765    1.79870849893810    3.33553721595682
O          -1.55465054775858   -2.03005444405663    0.53281439746944
H          -2.35551140817771   -1.55288929061925    0.76774274781016
H          -1.23277421954922   -1.57584622223793   -0.28124357161895
O           1.96853203177512   -0.75843811224909   -1.95255703706638
H           1.01406288688018   -0.95560479188333   -1.89680484890588
H           2.13743510666371   -0.29999215525764   -1.11763808098375
O           1.28146998146998    1.39451233419659   -3.31937093434963
H           0.29826998818830    1.80956108783766   -2.12027739808795
H           1.71214341263693    0.59085315763554   -2.93245080964141
H           0.74897316242038    1.08581709100435   -4.05568751788163
N           0.30385021348160   -1.01390987489532    2.11224673579294
H           0.72240936496515   -0.37699503760180    1.35474608905046
H          -0.20651450687019   -0.36769287855367    2.76018256043358
H          -0.42177095726387   -1.58934869763216    1.59288196893234
H           0.99793285488322   -1.58526371492122    2.58102830534339
