    23
        -45.37722776  Gyration_radius:  2.39400493445 Dipole_moment: 5.956
 S          -0.66938232114264   -0.61518983103026    0.62467882780171
O          -0.58905529030570   -1.89012156347342   -0.07997809887017
O          -1.69927402734105   -0.78459156111672    1.76609979434029
O           0.61299140171879   -0.24153189241426    1.21490852166691
O          -1.15766533888734    0.43735620879822   -0.27184788196578
O           2.82292308100134   -0.59714498257639   -0.12880498877167
H           2.02508776425828   -0.35978920158627    0.40812327470091
H           3.38786848536072   -1.10102694563929    0.45957903266110
O          -1.58696430279266    2.67340380764856    1.08154754981012
H          -1.39495620466480    1.90470902873284    0.50092238410306
H          -2.52650185309645    2.84341178659975    0.99538163136314
O          -0.25678964475232    0.52762332536199   -2.72885687121917
H          -1.04193921463688    0.50425340132949   -3.27852491873525
H          -0.58546404752730    0.59963839200553   -1.79832922648128
O          -0.69296184413061    1.15472006922522    3.10444059986952
H          -1.00555723432392    1.90231231507751    2.55196513358990
H          -1.44248367101986   -0.06978750852315    2.42251438343736
H           0.12915300551213    0.85879961266780    2.68376318608124
N           1.15480976719472   -1.57183252350373   -1.93822964138158
H           0.72675465572127   -0.76345668527482   -2.45556431835574
H           1.97903128032830   -1.22772812391935   -1.38236374095914
H           0.41682342852443   -1.84092710413130   -1.20011794862344
H           1.39355212500263   -2.34310003425904   -2.55130665406493
