    23
        -45.37069676  Gyration_radius:  2.39990044331 Dipole_moment: 5.474
 S           1.01249274852737    0.11680776581260   -0.45343814368277
O           0.86760552700852   -0.57089830641005    0.85044223758679
O          -0.32984253116052    0.26263221687666   -1.05292041203167
O           1.58721425642585    1.51289381286748   -0.20488847293285
O           1.90585508782657   -0.60630970180816   -1.32418899747105
O           1.07292152467752   -3.02114370012580   -1.85785672446300
H           1.80256728200630   -3.60399978721205   -1.63993567554045
H           1.44080973316929   -2.10173623537377   -1.79258649769676
O          -0.40683870466889    0.67805930813861    2.78289436698168
H           0.17758810171447    0.71819756000119    3.54185038094515
H           0.07831036295311    0.16985792241946    2.09346468074678
O          -1.87076272658624    2.41024947192913   -0.83015217342482
H          -1.36731046645001    1.58013218950585   -0.97092099998631
H          -1.71898065972934    2.94702979075571   -1.60976756654651
O          -0.11221473286071    2.79977852408973    1.15787731478110
H          -0.87130003569278    2.81882426152811    0.53608660535629
H          -0.35208826933081    2.15051611369616    1.85309311007722
H           0.93211649916796    2.07688930200566    0.36167642175515
N          -0.81731581390423   -2.11674745913392   -0.27727558541331
H          -0.96834874622200   -1.20215785151040   -0.79233584907136
H          -1.66601192920242   -2.56099973109603    0.05591242772396
H          -0.22044530370982   -2.71841770633348   -0.90661603570107
H          -0.17602122397288   -1.73945776062569    0.47958558801106
