    23
        -45.37136257  Gyration_radius:  2.46152693975 Dipole_moment: 7.532
 S          -0.58702983022172   -0.09003902735614    0.81866119176416
O          -1.71063131242880   -0.71763648491012    1.68725666324982
O          -0.93972987833213    1.27653391971015    0.51018230824984
O           0.65477281387947   -0.21306401463822    1.58883656061775
O          -0.48586860027433   -0.91512003712686   -0.40384133838111
O           1.64490897228670    2.05899037384869    0.55740550654903
H           0.74507009540846    2.26947793684550    0.26943154150000
H           1.48572412960359    1.33987873616446    1.19286834314158
O           3.19868704894678    0.82208458051764   -1.16764257594378
H           2.60748052778890    1.39907600801728   -0.61401127208026
H           4.09295045483850    1.12189819126045   -0.99633654131493
O          -2.88867777371569   -0.89220486343411   -1.56507845167327
H          -3.15919906220010   -1.81196260122287   -1.55362728081371
H          -1.96548740833856   -0.87515462610637   -1.23715234125831
O          -3.56427186210798    0.64400698093540    0.54614706768445
H          -2.55812443547435   -0.27238162975510    1.38128021596286
H          -2.86287468123872    1.30652151287587    0.44856997698020
H          -3.57370539768798    0.16251899563234   -0.30658704793477
N           2.01918675388612   -1.35940034951086   -0.24844855733256
H           1.03092896905572   -1.33844104845882   -0.63919160094696
H           1.76995871679280   -1.03111783348305    0.72419686801622
H           2.44802575456815   -2.27732927728261   -0.28005914364732
H           2.59790600499078   -0.60713546255230   -0.71286009238469
