    23
        -45.36645567  Gyration_radius:  2.46398604258 Dipole_moment: 7.165
 S           0.81709660774039   -0.42776344175377    0.32627605175124
O           2.00071802995414   -0.96121387000544   -0.30529346873752
O           0.84662394856855   -0.33906744879791    1.75574731463329
O           0.43340404594275    0.86507439171941   -0.31160211097372
O          -0.35201359946793   -1.40861529062917   -0.10818387888507
O          -0.15496874259527    1.45610291985158    3.47555460850466
H          -0.55112475891097    0.91154635675208    4.15834297178923
H           0.34365335261404    0.83615642372344    2.90689337962082
O          -1.61528728618643    1.73005911623160    1.22558455424109
H          -0.86103476467531    1.58235447901115    0.62646899024998
H          -1.19945129073323    1.86690841777364    2.10164178272066
O           2.62339271998344   -0.93343434234075   -2.82171537069486
H           2.52233325145379   -1.08051915243761   -1.84593269749764
H           3.35012976103318   -0.31437754236039   -2.91318452729092
O          -2.36748691011949   -0.75262131311996    1.36180569095430
H          -2.16168474805828    0.22869654406229    1.38414234404135
H          -3.22186281424263   -0.83949938351719    0.93530690325867
H          -1.11071591811606   -1.24906610346951    0.52438858343685
N           0.10920080501722   -0.22894797047536   -2.54384314554646
H           1.08790501141998   -0.46574839812067   -2.87609486655735
H          -0.31323071976314   -1.07691277049447   -2.15823453439824
H           0.24131116908072    0.40547355008899   -1.63476758346807
H          -0.46690714989858    0.19541481823840   -3.26330096116603
