    23
        -45.36645576  Gyration_radius:  2.46397591959 Dipole_moment: 7.161
 S           0.80044427637892   -0.24696886712260   -0.50487084910793
O           1.82412810211060    0.72313087701574   -0.25409276310931
O           1.09456302353789   -1.24097598203842   -1.50988840268237
O           0.53608313754235   -1.07669506454244    0.82161487340880
O          -0.52170100233289    0.38628183066212   -0.78121339354664
O          -0.67210779307638    2.34520176265970    1.07560154850207
H          -0.73337237108603    1.73189242565907    0.32072194077110
H           0.07064115262513    2.93844407905735    0.83971783791698
O           1.72960468297782    3.33245609622282    0.34990615832419
H           1.84205697934976    2.42275961146532    0.00894067170484
H           2.36949330433276    3.41863560853418    1.05898947617504
O          -0.53463389077311   -2.91816686469289   -2.62995897025851
H          -0.64242000474884   -2.62656252322850   -3.53726722457384
H           0.22688284130551   -2.39306412398342   -2.27170721738376
O           0.46148267107390    0.67647899971211    2.71201689119380
H           0.61359054703645   -0.43233460042448    1.58326950271890
H           0.03319654084434    1.39913156684412    2.16412108613504
H          -0.15133207695124    0.47689922236164    3.42197087624194
N          -1.71722291167399   -1.80668150138422   -0.56586050085140
H          -2.70974137017763   -1.85152153388955   -0.35993897657222
H          -1.44369519222270   -2.35285844011603   -1.43252549139200
H          -1.33226923286470   -0.77083911450421   -0.72447128893878
H          -1.14367144325168   -2.13464347433446    0.21492422540204
