    23
        -45.37694086  Gyration_radius:  2.42185523 Dipole_moment: 4.264
 S          -0.80295842507178    0.26548780011837    0.09826978675589
O           0.19848945597687    0.05916606537418   -0.96847314492438
O          -1.98279984653608    0.92989464508547   -0.38147563613546
O          -1.06245776279593   -0.98275530563091    0.80362481580848
O          -0.08928415774016    1.18650755568282    1.15640565923295
O          -0.52589781142728   -3.34171220287257   -0.29656892096207
H          -1.06604890155029   -3.43617228901518   -1.08279098048078
H          -0.88216742268927   -2.56203630155820    0.18367029545280
O           1.08257339414773   -1.07751248257288    2.34536031689460
H           1.22030497304102   -0.14982873025192    2.55629151180627
H           0.16930950302972   -1.10942630595148    1.98552264590556
O          -1.76833288416248    3.35464593253537   -1.41336064554041
H          -1.95762694650704    2.43339402176874   -1.12870870007689
H          -2.36151542522534    3.91235902682138   -0.90735505650773
O           0.73507921175209    2.71545862047260   -0.72967279499596
H           0.26957590974984    1.92155521117276    0.58222586794852
H           0.76608510462823    1.88741071511015   -1.23053704183722
H          -0.07848393887434    3.16781037994221   -1.04241180030848
N           1.67302109602556   -1.85165485930664   -0.11593367377256
H           1.15086856424887   -1.01800365165520   -0.56758889092178
H           1.02708718951056   -2.66284624395948   -0.25354479848020
H           2.59450826767415   -2.00838697877389   -0.50812720028367
H           1.69067085279240   -1.63335461253519    0.91517835542181
