    23
        -45.37266172  Gyration_radius:  2.39363428222 Dipole_moment: 5.241
 S           0.78972101392883   -0.42739731673647   -0.15668278351341
O           0.22560812075555   -0.93639826633268    1.23178047586149
O          -0.38493687379935   -0.13525840246452   -0.97035531246036
O           1.49962618550301    0.80900546289234    0.20942699108263
O           1.64787016054780   -1.43472028263527   -0.71403703506868
O          -1.61641238148388    2.05368015384582   -0.24426674667750
H          -1.00013000843617    2.66325637451118   -0.69928722887664
H          -1.34446562844961    1.17250575467564   -0.60173149042941
O           0.71134390735547    2.95128038879669   -1.23801794031922
H           0.88496955296210    2.80352064066186   -2.16899317896064
H           1.12788835158036    2.20266842153664   -0.76669922593257
O           0.56536107459182   -3.81370193194829   -1.13292238887194
H           1.03981172353293   -2.95418430032488   -1.10475604414016
H           1.14565865207387   -4.44827896863868   -0.70917597523992
O          -1.42974750753511   -2.45084049130528    0.01108125752475
H          -0.86061741866813   -3.13775025604569   -0.39927558856979
H          -0.44149899317555   -1.62549980681531    0.93756932627498
H          -1.45808451989393   -1.73262085007938   -0.63825094448371
N          -0.22663163951999    1.70686520509800    1.87882690982523
H           0.62486239133688    1.38418163282006    1.30009772663447
H          -0.95703076972119    1.93789383441822    1.08449440230237
H          -0.52999948746970    0.90432062537119    2.42629430661278
H          -0.01316591601030    2.50747235872599    2.46488047742512
