    23
        -45.36595086  Gyration_radius:  2.33231393591 Dipole_moment: 3.843
 S          -0.13837690299255   -0.81475878805957    0.92681432328459
O           0.90588765387221   -1.45734902486513    0.12415038082294
O          -1.35691809053160   -0.63254746466862    0.14224710817819
O          -0.44856818137946   -1.78344401377188    2.09829601490664
O           0.32595736959089    0.45500842219489    1.47299974026350
O          -0.75811460516350    0.81675527947291   -1.88576831032672
H          -1.02722866686200    0.24971867650745   -1.10457144273180
H          -1.57408576657677    1.08522768588027   -2.31137462568655
O           1.28162446448765    1.93275082974868   -0.43358149798586
H           0.54459027475725    1.83559650228122   -1.06189811771909
H           0.94372842409176    1.52798601088517    0.40789675084580
O           1.07322655471631   -0.89347041436386   -2.87648526607948
H           0.35872042694442   -0.24798534957144   -2.68963801770452
H           0.82202861668413   -1.69515100751062   -2.40602794589813
O           2.61677540696460   -0.08552117424436   -1.02109245945477
H           2.19682942403132    0.87243437118373   -0.79937941627898
H           2.04613165816381   -0.70759899361140   -0.39719395735899
H           2.21432366098190   -0.35223266951617   -1.92291410889367
N          -2.13312896461942    0.05335381659831    2.85529547402281
H          -1.36796625924777    0.71045906046157    2.74253010324080
H          -2.62057074041684    0.01710908909164    1.96749257356527
H          -1.13891827521621   -1.28230459847328    2.60482476082448
H          -2.76594748227284    0.39596372434053    3.56737796616081
