    23
        -45.37350731  Gyration_radius:  2.31055315529 Dipole_moment: 7.173
 S           0.90496129621119    0.64780114619187    0.05938092997802
O          -0.16025633779998   -0.18317233359812    0.86437439624998
O           0.40642955571551    1.98523428400645   -0.13096002636733
O           2.09035016339844    0.56216298305399    0.91634764092377
O           1.10509679111168   -0.07036681488819   -1.19964690208732
O           0.69548241586673   -2.55135806022804   -0.61852050805936
H          -0.26277392135381   -2.59584011238083   -0.56805597715705
H           0.89418241544466   -1.65574341557942   -1.00085434051037
O          -2.08851161278528    2.65904582639787    0.50791163767385
H          -1.15033959412330    2.51802359827182    0.26019878016762
H          -2.07448816179968    3.07462997933831    1.37071529924471
O          -0.97408988050808    0.95270173720231   -2.49662848835090
H          -0.88833296527647    1.89278433900198   -2.31659260625649
H          -0.13425758618986    0.55907979141123   -2.18825843227707
O          -2.34494381937362    0.12577259247706   -0.37564572431892
H          -1.06930597874321   -0.09593718233998    0.39587458919745
H          -2.58232644963366    1.00074031907346   -0.01343304818273
H          -2.00640999928007    0.32703343804546   -1.28090255400557
N           1.94254256129050   -1.86250254159248    1.58790626683258
H           2.08219566625270   -0.78062287574880    1.33028374277187
H           1.34970299646916   -1.91626297532260    2.41061620554128
H           1.43121040866779   -2.27094336113825    0.74117380883934
H           2.83388201646477   -2.32226036163919    1.74471533012141
