    23
        -45.36595094  Gyration_radius:  2.33223706122 Dipole_moment: 3.843
 S           1.17847971589690   -0.05335431194190   -0.38742363129906
O           1.33842286264254    0.48705686424579    0.96546667058763
O           0.62660236503325   -1.40245733291350   -0.35210202010511
O           0.34962789750450    0.82986824369484   -1.20372482669270
O           2.59915553494187   -0.10659711675784   -1.00842203701869
O          -1.53722959816658   -1.42701898197847    1.08014885225569
H          -1.97592060040765   -0.65835635284307    0.67499411580888
H          -0.75780082146885   -1.60521029644589    0.49141556157493
O          -0.93873004962691    2.07935108635849    2.23937133681801
H          -1.43226006238578    1.82290967408698    1.43143503012224
H          -0.07367316604272    2.36676541543217    1.92918799178847
O          -1.92629709560048    1.04311463970729   -0.04337623801684
H          -1.04927034770668    0.98136557976040   -0.52423002587014
H          -2.53053296159684    1.47505513633064   -0.64946696008797
O          -0.14478861543371   -0.27428429203326    2.79322418111397
H           0.62676371392769   -0.07883453950537    2.10878145740715
H          -0.57031637926872    0.65560476246300    2.82281158477460
H          -0.80615340505459   -0.86588212030602    2.19729161975063
N           1.39433131895911   -1.12364159118197   -3.08186269249037
H           1.47509144514514   -1.57504558431056   -3.98445663523168
H           2.41996326708483   -0.49529993221284   -1.90344322797740
H           0.78731610168500   -0.31659671822017   -3.16731595581466
H           0.94721889993560   -1.75851224143118   -2.42830417139134
