    23
        -45.37771067  Gyration_radius:  2.3490951224 Dipole_moment: 5.305
 S           0.49234590716392   -0.98815998090364   -0.45534046154200
O          -0.85284719891179   -1.42474509709168   -0.07295576630611
O           0.82593375985210   -1.60728823605501   -1.83422314099264
O           0.52036094358347    0.47146744915846   -0.59110470801709
O           1.49132056664069   -1.45291332501643    0.49334371102789
O          -2.69073025005416   -0.70272378432721   -1.82588653082003
H          -2.07223812030278   -0.99341718134561   -1.11872229385169
H          -3.14721924939598   -1.49354862723914   -2.11753662082435
O           1.98922490856853    2.14348172043250    0.79975412817324
H           1.53006102060261    1.54024136808469    0.16733986783668
H           1.67393218304095    3.02676669288669    0.60237301871579
O          -1.34068053592333    0.17705043003241    1.93303405367470
H          -1.69226249388810    0.94276589528117    1.47358846124518
H          -1.24618731210676   -0.51659417957474    1.23475446136109
O          -0.49346760771248    0.22222996257052   -3.07505084366971
H          -1.41159095334749   -0.02094808131198   -2.83428784971618
H          -0.16986579357499    0.74540729311647   -2.32567579438086
H           0.36706774498408   -1.01054147903778   -2.49372353021031
N           1.25868406783038    0.19681187312970    2.45199338368088
H           1.63668410810774   -0.03189653380195    3.36449029551620
H           0.20552920162698    0.26221625553029    2.44755661724282
H           1.65434934368921    1.07855203179663    2.05556621847352
H           1.47159574955446   -0.56421447631944    1.72071332337661
