    23
        -45.37722790  Gyration_radius:  2.39413493964 Dipole_moment: 5.954
 S          -0.83901512845834   -0.52308288663044    0.48720829201210
O          -0.87735938126309   -1.75011080795027   -0.30113055251868
O          -1.89426734806029   -0.66408152147762    1.60911872021091
O           0.47382372132303   -0.35963935259134    1.11950062324901
O          -1.17772960228144    0.64768721520100   -0.31724792646751
O           0.44113107403650    1.69857302364853    2.78640118676625
H           0.55104391595346    0.96295161005329    2.14480536857448
H           0.61414744474608    1.32447304940586    3.65193319742471
O          -0.23375299125731    0.88674249701986   -2.73956759604652
H          -0.56404610159755    0.90506075221148   -1.80593304910116
H          -1.00506977649894    1.04053878278461   -3.28788833791716
O           2.62492525227309   -0.90978298583047   -0.26888045175471
H           3.10008584456062   -1.55256830710538    0.26050401390197
H           1.86378369591020   -0.61495039997326    0.29039910168434
O          -2.08368842946253    1.87476771524173    1.89598773438584
H          -2.10327393779692    0.28627430282716    1.85634293352095
H          -1.22507010564609    2.04402823479640    2.33857359957039
H          -1.88148382183686    1.87533480128545    0.94757174701556
N           0.85975773562620   -1.45541457932310   -2.16943679852919
H           0.54152355803694   -0.54847516565923   -2.59714237764549
H           0.99494681975102   -2.18517667165598   -2.85999791938006
H           1.72129092908384   -1.28072581559605   -1.59358471064074
H           0.09829663285913   -1.70242349068139   -1.44753679831186
