    23
        -45.37261597  Gyration_radius:  2.32976905955 Dipole_moment: 4.233
 S           0.01198466049895   -1.04139039147156    0.45066938512266
O          -0.64553395997654   -0.79751507844973    1.73438137388821
O          -0.95104268199184   -1.17592891455339   -0.63837569686115
O           0.76283819649745    0.33583506204941    0.16897802632604
O           0.99817058631135   -2.08536588765400    0.48779944969035
O          -1.75112966957976    1.21838794108947   -1.29093472655444
H          -1.57609237639372    0.25612847280009   -1.13836146785081
H          -1.03166803669181    1.51970192271367   -1.85155204369016
O           2.61073260013221   -2.19985853313231   -1.60688071335275
H           2.66349864485373   -3.11492900380501   -1.88709969975957
H           2.10840547470924   -2.20623056447999   -0.76212569219317
O           0.50326468096980    1.59834994399068    2.62437379639375
H           0.30057299962479    0.64808183349283    2.62060048184627
H           1.22630287469887    1.69311357199429    1.99816190139008
O           0.92316439829355   -0.25881610174642   -2.33741854159889
H           1.67425671285920   -0.88688865117743   -2.31768762818903
H           0.14304855891862   -0.79542692074983   -2.12127378890153
H           0.99000374330251    0.26601735541099   -0.79593875020153
N          -1.82586593664729    1.43865771584248    1.33344911448920
H          -1.03965294232219    1.94397033976990    1.79349682973164
H          -1.54364614883805    0.41306869869537    1.50704691008941
H          -2.72455182942472    1.66656443090467    1.74522055758128
H          -1.82706053983889    1.56447274853257    0.28347093257525
