    23
        -45.37771075  Gyration_radius:  2.34949275835 Dipole_moment: 5.306
 S           0.06630226598194    1.19098056040528    0.04039253901086
O           1.18833051376277    0.81817116582035   -0.82452056516955
O          -0.33845861834388    0.03901461101244    0.85214431363167
O           0.54603920806162    2.30993898223543    0.99638235616327
O          -1.04873435377650    1.71471316941086   -0.73174244677005
O           3.28650108522828   -0.03035935584603    0.53572817844770
H           4.03468008241062    0.51904059233825    0.29656365148662
H           2.54539964721417    0.25546604798072   -0.04407169206049
O           0.28022907460336   -1.38972118224136   -1.88760340657271
H           0.70115430660467   -0.54240527771924   -1.60065752808261
H           0.54830679608246   -2.03393243098069   -1.22871198130520
O          -2.68367010463355   -1.13823350859050    0.83855923496191
H          -1.84290986495479   -0.63817830166368    0.97180351155352
H          -2.59662434069758   -1.94641587826072    1.34629522371773
O           1.65175243668959    0.60532348501846    2.57749051414866
H           0.90248264447181    0.07142913136297    2.27147853730224
H           2.40963543768181    0.31269059470132    2.02975456948392
H           1.03907101323903    1.82553339539441    1.72012983833403
N          -2.17029237633514   -0.40424763536782   -1.66154612718990
H          -2.60534092400366   -0.82452200497140   -0.80982535707631
H          -2.81078095543598   -0.34533922651740   -2.44523024901054
H          -1.81641382957757    0.56407074945767   -1.35141916422207
H          -1.28665918427609   -0.93301770294252   -1.89139394073833
