    23
        -45.37771065  Gyration_radius:  2.34928622054 Dipole_moment: 5.305
 S           0.05289979515646    0.75629300193802   -0.92228077461344
O           1.36620533083769    0.10727395221983   -0.93765225474852
O          -0.44692303125054    0.86710129166804   -2.38303042121513
O          -0.90000763074281   -0.07001028437311   -0.17472863786962
O           0.13164082694868    2.10171229548144   -0.37686244997012
O          -2.18867030319680    0.61518288282581    2.00634158385230
H          -1.83150765214269    0.37609221058831    1.11755423000629
H          -2.60243679579051   -0.17818296492496    2.34962582630740
O           1.67744260438575   -0.43983465056843    1.59839098817421
H           1.69934544789451   -0.23230868097952    0.63191577078873
H           1.22965037640502   -1.28667470821525    1.65853344207678
O           1.30170218326537   -2.29663740466355   -2.02747093673837
H           1.40757593810202   -1.42050864695436   -1.59336731190368
H           1.92921921477535   -2.30894605247216   -2.75200770567316
O          -1.26632581059937   -1.57324302447301   -2.38114667701918
H          -1.43385419241380   -1.35233309780036   -1.45208312442974
H          -0.81573852939340   -0.03990545012712   -2.59033549433400
H          -0.41167674350928   -2.05260944766604   -2.37580118984911
N           0.22746140740560    1.70633555706896    2.16205908576818
H          -0.74248566403008    1.38478577042416    2.37906445731926
H           0.19664128202099    2.02928674139692    1.13540704720991
H           0.55070749099076    2.43822992886220    2.78471844191929
H           0.86913447493491    0.86890077074328    2.14315610495071
