    23
        -45.37876335  Gyration_radius:  2.39232597954 Dipole_moment: 5.192
 S           0.20576120658402    0.86828088431882    0.24217476111356
O           1.08663865128853   -0.23463545881465   -0.18302717322935
O          -0.87122848061003    1.05103318777320   -0.73315080344824
O          -0.32599954270470    0.63801110661285    1.56937825872829
O           1.05747791736652    2.15800957178977    0.27509850559922
O           0.17650981167334   -1.41030959051418    3.12929001502695
H          -0.32930300284913   -1.30325511923274    3.93623464586341
H           0.10027787925070   -0.55415167478522    2.64426309105607
O           0.06530157822098    1.58788070589231   -3.14815498181354
H          -0.33362448416492    2.41896341790688   -3.41133609933062
H          -0.36432985460760    1.33922061939129   -2.30010441242270
O          -2.45561214664008   -0.80489035885827    0.21559911595072
H          -2.68304784072534   -0.39976466182677    1.05662485249777
H          -1.97078153633472   -0.09323232050860   -0.26703010723300
O           2.38943805219395    1.49884400034071   -1.81488145058371
H           1.68728024121872    1.57770282286721   -2.49629251630477
H           1.66493409207839    2.07782010219646   -0.52133962783159
H           2.29318293403241    0.60357674204002   -1.45927449781321
N          -0.28153430824722   -2.25088692478098    0.64824418354263
H          -1.24368264764102   -1.85209691733402    0.45216892245777
H           0.39138042302990   -1.51908391765981    0.23834011763071
H          -0.11609567126091   -2.22484336103653    1.67889846521497
H          -0.14294329114851   -3.17219284577910    0.24827674532583
