    23
        -45.36681882  Gyration_radius:  2.33387044517 Dipole_moment: 7.057
 S           0.84378799245625   -0.82235046822578    0.21651002395429
O           1.79893235640856   -1.92813185680452    0.33513414651464
O           1.49954089620085    0.35520911318933   -0.37787764081888
O          -0.17049127709643   -1.32017919161902   -0.84742364508357
O           0.14057633831690   -0.51290109678259    1.43974822315577
O          -2.52211285949992   -0.31984489501385    1.63161535276171
H          -2.92856131933192   -1.16069178564592    1.84481330624781
H          -1.55425955336837   -0.46876673751520    1.64723942424456
O          -0.37406537195565    2.32566711587283   -0.45266231101743
H          -0.52012114905185    2.48422824423974    0.50067811886527
H           0.41911869202073    1.76475914362801   -0.48630729037820
O          -0.71141976957885    2.00033190843410    2.22776528466818
H          -0.20691421921188    1.17838619263185    2.12175925938171
H          -1.62127784480156    1.72146970520457    2.36839398353285
O          -2.02956423836806    0.35851794250272   -0.96249930590272
H          -2.45098737817483    0.22043384141415   -0.09296974627504
H          -1.51166745663356    1.20543443452374   -0.87758899274963
H          -0.96738248457598   -0.64995256333387   -0.94985417929892
N           2.61152655988547   -1.30102271248178   -1.92219183953387
H           3.59419998513512   -1.29600085343491   -2.17521890429260
H           2.02495018009513   -1.63610680681742   -2.68032966673988
H           2.37855276992550   -1.83593106902777   -0.96508581028973
H           2.25763914118533   -0.36255760492867   -1.54364779093801
