    23
        -45.36829667  Gyration_radius:  2.4864643667 Dipole_moment: 4.926
 S          -0.18408900188668   -1.32041356131213   -0.35648224158696
O          -1.01339232442430   -0.38509403075094    0.42810694798116
O           0.80700822335703   -1.97286230086126    0.48502023751609
O          -0.96496533322144   -2.20541492271291   -1.17622415692411
O           0.65546699633187   -0.38214952558366   -1.32681715758031
O           1.45281860117119    1.92572024185767   -0.10222004946650
H           0.68680518252289    2.42375333684038   -0.39743791579771
H           1.37055203500968    1.05014778717438   -0.52044851624261
O           2.13380604258041    1.60328299314230    2.44647000791003
H           3.08400143340422    1.47513124275635    2.44442792104811
H           1.89350408601721    1.85517817549898    1.52476270222918
O          -2.60856974485777   -1.06486319368081   -2.90699964244350
H          -2.43795430752930   -1.48509880887054   -3.75140156900651
H          -2.09869218529150   -1.58130361560256   -2.24325541453605
O          -1.41441186559707    1.05353707848869   -1.80444305734480
H          -1.97516193817885    0.47465806171607   -2.36305697897356
H          -1.61773998457103    0.77910248879990   -0.89446465826736
H          -0.05919637943778    0.19977276112873   -1.72110055663025
N           0.46826292081069   -0.47993675700701    2.50275796706794
H           0.85917164329550   -1.23444045857779    1.85392785890485
H           1.14232665136661    0.32025068711828    2.60955978584327
H          -0.33754509628511   -0.20308605712381    1.87355516187917
H           0.15799433541558   -0.84587162244098    3.39576328442426
