    23
        -45.37949584  Gyration_radius:  2.38830790456 Dipole_moment: 4.349
 S           0.84936217025436    0.40435456981550   -0.01668724617920
O           0.76499762577265    0.71813460067320   -1.42735671987236
O           0.05276748132578    1.33333261544433    0.78511349485977
O           0.42468586109225   -0.98407001740183    0.24822086423716
O           2.32860360401087    0.52323871191841    0.41924403313516
O          -1.97402832041568    1.51373725542835   -0.87025042668771
H          -1.53733834237467    1.89960119633074   -1.63494481483281
H          -1.29759560722111    1.56158278318775   -0.15456937232670
O           0.24753632103442    0.87354821171430    3.38159743200308
H           0.53399845117722    1.69566226365079    3.78305167800443
H           0.07479781838077    1.08036245998471    2.43654026176418
O          -0.12577311178402   -0.86855288281138   -3.32270761845090
H           0.28530987948015   -0.19733614755848   -2.72720515125414
H           0.58339832162561   -1.46295578646359   -3.57288997709581
O           1.97255522176960   -0.96678694021201    2.47706205318441
H           1.40946457219611   -0.38279193002015    3.02973404796089
H           1.35469521234010   -1.42720075956118    1.89082506958092
H           2.38022189273103   -0.01169852457214    1.26738641533769
N          -1.70336800468568   -1.09030284244002   -1.20126559639092
H          -2.01199374036864   -0.07920643025820   -1.09654547185645
H          -0.87642552886282   -1.18561751370737   -0.52478805315004
H          -2.44836014023770   -1.75159627384154   -1.01267323223843
H          -1.28751162724123   -1.19543861930016   -2.15689165973200
