    23
        -45.36829655  Gyration_radius:  2.48628067608 Dipole_moment: 4.925
 S           0.61201720427682    1.20004384439634    0.29849570317637
O           0.54007174862248    2.36551742683215    1.13617530237013
O           0.90234530493329   -0.04937587401028    1.23707596229856
O          -0.67540196606403    0.87930455594019   -0.34846873666078
O           1.69744123842895    1.20255395859293   -0.66981310340918
O          -1.25839176088301    2.31086040881643    3.07527534563169
H          -0.79605198266562    2.56937527960104    3.87400474283640
H          -0.62526013559468    2.46359912365558    2.33831461466585
O           0.61501935990523   -2.50013607092967   -2.54648919294011
H           1.47156539286560   -2.91948416135635   -2.64540457352011
H           0.38264600449913   -2.58225185403299   -1.59247323942661
O           0.16210307293254   -2.40650739562796    0.07096219358159
H          -0.71309463361440   -2.40181655429096    0.46586043256196
H           0.62027522330954   -1.63307948805847    0.44540336191816
O          -1.54731926695391   -0.11157892923931    1.99038385384960
H           0.03470436782706   -0.14401774090252    1.73030659203267
H          -1.63431135510294    0.67779614226957    2.56547010198995
H          -1.66627434015420    0.23342785600831    1.08947974436262
N           0.37310965505742    0.15668730872176   -2.55874964029017
H          -0.37563470125598    0.36581157350615   -1.83903226425925
H           0.48054791611886   -0.88176850949676   -2.68518426403854
H           0.21617764852693    0.63880020535646   -3.43655284371344
H           1.18371601499207    0.56623889424149   -1.99504010301995
