    23
        -45.36829683  Gyration_radius:  2.48578900956 Dipole_moment: 4.927
 S           0.79116963976777    0.97791021812642    0.57350200035114
O           0.39663406712203    2.14290587540458   -0.20285823151228
O           1.80258997350387    1.21992603125834    1.56520392027623
O          -0.52933941681525    0.52592678165144    1.33420100112289
O           1.11354884399931   -0.16220466972896   -0.30682103678984
O          -2.31571076727103    0.04044779776231   -2.77887269589755
H          -2.36084221680513   -0.39805152187647   -1.89757798045137
H          -3.05761072406858    0.64707703823138   -2.80883913243655
O          -2.23579045941450   -0.86660062854063   -0.28233536521780
H          -1.76971832780854   -0.21695955141984    0.27357042805601
H          -1.87995113701877   -1.72202051144686   -0.03008183981990
O           2.38095765719892   -0.80104237869897    3.17051775427582
H           2.30142597665853   -0.02335108151560    2.57366639173438
H           2.34628665219725   -0.45033097170809    4.06183459014713
O           0.41982022639198   -1.83060901716017    1.68026325306084
H          -0.27537016283613   -0.38511029354006    1.66628327374536
H           0.85159227635912   -1.60708584394406    0.83862257271012
H           1.12095043285911   -1.70187292241948    2.35367414070231
N           0.17390076823222    0.92651988075336   -2.41356473618905
H           0.14720156104469    1.69829270878837   -1.67467036870254
H           0.73999399144605    1.16731300343365   -3.21926394428311
H           0.63363993802095    0.19994074681766   -1.79461777177753
H          -0.79537877276490    0.61897931976949   -2.68183622310356
