    23
        -45.36474168  Gyration_radius:  2.45530024971 Dipole_moment: 3.611
 S           0.57131306633515   -1.13901821086371   -0.26873496479727
O           1.08539260506079   -2.17816727242986   -1.09693102434470
O           0.53881798304987    0.15941610264694   -1.05803125408945
O          -0.71534326185694   -1.37286506009087    0.34711434770343
O           1.56030190747091   -0.84958286267742    0.90199054356386
O          -0.59416318874757    0.32152664816674    2.41165753712074
H           0.27009693426503    0.14223667579999    2.78905971312935
H          -0.74981614307884   -0.40070757839395    1.77372869524020
O          -2.67877744100790    2.07963139038746   -0.76388075267804
H          -2.93011477914995    1.13409005618531   -0.65915561427870
H          -2.61697795438907    2.23329464554624   -1.70795411730991
O          -3.13941813581547   -0.54320901460360   -0.47358410001188
H          -3.71896972522996   -0.80103327442066    0.24602073540505
H          -2.26337166164842   -0.91438837968134   -0.25753539062445
O          -0.30180252637666    1.99035562610265    0.36405057498081
H          -1.20596203513415    2.15927778947144   -0.01249672870323
H          -0.45145219928199    1.53485938692031    1.22816123591924
H           0.19169568991234    1.00148957888044   -0.44831718368130
N           3.55883218357888   -0.88839439264374   -0.70654586260244
H           2.46589493640330   -0.81226411156426    0.43740221466242
H           4.46828478430560   -1.30800530698802   -0.56392802622618
H           2.98067093234523   -1.52037332853784   -1.25606104331535
H           3.67486802899433   -0.02816910720683   -1.22602953506534
