    23
        -45.37218155  Gyration_radius:  2.3934468798 Dipole_moment: 2.987
 S           0.32181830020389   -0.80992748470836   -0.59623097625834
O           1.36464447724988   -1.77463554119354   -0.35756401300086
O          -1.04874761998763   -1.43941161684035   -0.13846316127055
O           0.48122700146658    0.40780336327983    0.20771168673535
O           0.11663146376648   -0.47813923667230   -2.00152772127485
O          -2.02607400762008    1.18945745611005    0.27979230958601
H          -1.08852830174461    0.94329737046775    0.45850771681347
H          -2.49707782078881    0.35188843032230    0.29652784607180
O           2.03891538260954   -1.67401116378919    2.16594564626597
H           1.88997171911765   -1.59333752135423    1.19516502634731
H           2.80855781198924   -2.23707518370649    2.26826670788056
O           1.18744037769575    2.77111606648111   -0.71220562858386
H           1.11185602074003    1.86526507180732   -0.33123856638529
H           1.17809255450890    3.36826039846281    0.03808787287896
O          -0.48444283723173   -2.52608739978775    2.16257295236926
H          -0.88220859319881   -1.84250700051511    0.75504344605583
H          -0.34836020248432   -3.45876550764824    1.98083351887290
H           0.40851161498609   -2.15150745580505    2.34590471065502
N          -0.93094303850315    1.84794862651389   -2.03668761602958
H          -0.14013586531902    2.44619001250882   -1.70186934122862
H          -1.60470664926350    1.74541203344943   -1.23711661451368
H          -1.35696413709126    2.19292320408535   -2.88888153756956
H          -0.49947766110217    0.85584307853561   -2.15257428442082
