    23
        -45.36364682  Gyration_radius:  2.45438512356 Dipole_moment: 5.104
 S           0.48280271801787   -0.18261321499658    0.95105121615078
O          -0.86515223539845    0.35134344829992    0.41923051814982
O           0.37516495454948   -1.61350705187864    1.01601569774455
O           1.54623980639208    0.35995381969974    0.15842851239290
O           0.58975579830672    0.38685805618560    2.37517570499544
O          -0.63582740031734   -1.89067111509925   -1.50255766442304
H          -1.36898173722928   -1.27925607317600   -1.39667653290172
H          -0.25584559938765   -2.00600132224197   -0.61730863502380
O           1.32098088766658   -0.28953986877457   -2.52169800674574
H           1.64921337403169   -0.08123460454101   -1.63396515517132
H           0.67646501314669   -1.00948779369458   -2.38581693241205
O          -0.11132522471741    1.85728888846375   -3.06452003749262
H           0.41132736035158    1.01914620904261   -2.96125692540058
H           0.34869311754083    2.37897061124528   -3.72359096358673
O          -0.04193268221958    2.51292646046774   -0.52232225486814
H          -0.15769808712475    2.38265825375818   -1.50276618356649
H          -0.67478726417477    1.30398265362010    0.04231938570385
H           0.86641833226526    2.24367414196347   -0.33103336762901
N          -0.90834413312928   -1.33991873611144    3.52627741498790
H          -1.90237886998443   -1.15496409266265    3.54072109499362
H          -0.69680386029846   -1.97391176389999    2.76084215363079
H          -0.00821426183422   -0.20633636729688    2.97187859172906
H          -0.63976999649335   -1.76936053837759    4.40157235873054
