    23
        -45.36364680  Gyration_radius:  2.45457586018 Dipole_moment: 5.108
 S          -0.83219322761902   -0.67954581024956   -0.11977786189608
O          -0.37020509129563   -0.50831509945170   -1.46544985329873
O          -2.36936110821859   -0.70939665900213   -0.12649206512847
O          -0.33601036491778   -1.81530349235709    0.60637034008456
O          -0.47151905510634    0.57820457053054    0.70064661485831
O           2.36140263449267   -0.09383182523694   -1.61346074236269
H           1.44505501796579   -0.36021360589298   -1.78248464803353
H           2.54917855152794   -0.40934086324487   -0.70937674146267
O           2.14764729402834   -0.76456046741042    1.02031258892114
H           1.35557330683662   -1.31977523219718    0.94502398205196
H           1.85505399023405    0.05831471651428    1.42016386893530
O           2.11457340253130    2.52466192922099   -1.41924283393020
H           2.31305555100341    1.55405067426287   -1.48841884327326
H           2.49506482424606    2.93095469387429   -2.19919848645405
O          -0.48358915344274    2.23396340659883   -1.16890193351360
H          -0.50220172684125    1.38003325334809    0.03592068651221
H           0.47620726805318    2.48948909092966   -1.24074379360412
H          -0.60708402791052    1.51208790965725   -1.79965168610543
N          -2.68352392777789   -1.75130333431744    2.19013950258067
H          -2.65777627247291   -1.08968502001350    0.78885104819003
H          -1.74635316368599   -2.13388511571050    2.10111906426908
H          -2.71263743431719   -1.12184595077964    2.98098028309315
H          -3.34035728730575   -2.50475774907181    2.34367151957840
