    23
        -45.36364690  Gyration_radius:  2.45433934705 Dipole_moment: 5.100
 S          -0.86620641199134    0.01410498105509   -0.64874173895509
O          -0.79571686874152   -1.36055337886102   -0.25019244423641
O          -0.22825247252677    0.89073563974384    0.45092048784744
O          -0.24018429519980    0.37127582735790   -1.89126057130676
O          -2.34213374552698    0.44379601025277   -0.67869672057969
O           1.80058729842115   -2.21559315944318    0.17974725736792
H           2.22019764319809   -1.46680196729606   -0.28440749699368
H           0.86173539280571   -2.15562966284248   -0.05305892460390
O           2.30665076575306    0.22461269640054   -0.92528735694432
H           2.17773767591162    0.81854220670211   -0.18151226316781
H           1.49986410258070    0.28950330702239   -1.46027421226543
O           1.75056876616641   -1.53415585503813    2.72705738936853
H           1.87237535874478   -1.81519898988932    1.78239163423505
H           1.91660603647336   -2.31256368329249    3.26059840878866
O          -0.68267044988424   -0.60126801262941    2.40117550142409
H          -1.01503723071147   -1.27927347842309    1.79778845818492
H           0.22947180881528   -0.90230213038647    2.66397391532125
H          -0.40447992878631    0.40212542186009    1.35441855604850
N          -2.03586104958839    2.55168902750761   -2.09816347601793
H          -2.37717302110583    1.32868944702700   -1.20904313738834
H          -1.18271326648605    2.13530016965419   -2.46058011190885
H          -2.65786346826026    2.76537034176609   -2.86635271819029
H          -1.80750264005243    3.40759526174961   -1.61050047602593
