    23
        -45.36364685  Gyration_radius:  2.45440372487 Dipole_moment: 5.104
 S          -0.39618507455904    0.14598036629428    0.99636645833798
O           0.01218855054848   -1.02113598891860    0.07113702964292
O          -1.10921724976375    1.12370516107960    0.22879181130960
O          -1.36347086604142   -0.48493139922622    2.01134826830278
O           0.79137300793375    0.58229833039543    1.67652581429801
O          -0.46524007009215    0.27235189891146   -3.54445678352064
H          -0.90408505936231    0.69650637514264   -4.28312973219717
H          -0.08143070839479    1.00421029079869   -2.99364630294609
O           0.38263591375219    2.12836715772552   -1.87374393776852
H           1.24040678629294    1.80788361824263   -1.53649947257606
H          -0.23192501617955    2.01439948540474   -1.13311179937577
O           2.32138284874177    0.71621362188222   -0.57814777492752
H           2.15802202076433   -0.18171100427891   -0.87750807674164
H           1.94316043308871    0.77220959458166    0.31355670363378
O          -1.84047921228445   -0.81900336165057   -1.59117739459265
H          -0.73081941772172   -1.09246020370269   -0.65596730267955
H          -2.13547607618407   -0.00837378583104   -1.15522692419107
H          -1.36486762331036   -0.52127941950422   -2.41383391923509
N           0.40685672205906   -1.50358875018957    3.55372794520440
H          -0.77802680039866   -0.97686070278983    2.70480900421157
H           0.34082960014822   -1.41845949123064    4.55924387360246
H           0.74650376850880   -2.42749130108593    3.32231726560273
H           1.05786353242942   -0.80883048205704    3.19862524660402
