    23
        -45.36364687  Gyration_radius:  2.45433902689 Dipole_moment: 5.102
 S           0.47477845152498   -0.63681374845217   -0.73482584018530
O           0.79528891861325   -0.70949061190944   -2.23684872691671
O           0.02483998604397   -1.92299188485502   -0.28033870715962
O           1.59341000102816   -0.05495672978696   -0.05393398974535
O          -0.72892950538009    0.32600852374786   -0.64037437643910
O           0.17865846244817    2.89401349418221    2.10800751725240
H           0.48590620513441    1.99575399163358    2.39953046592389
H           0.71434977780680    3.52771470034140    2.58715685103658
O           1.07097754118058    0.46418208357710    2.61315581406657
H           0.27819154026221   -0.10269806457588    2.66122690378809
H           1.48797051298200    0.23435761510279    1.76904730873976
O          -1.15980944577119   -0.97176918703769    1.98558222487561
H          -0.77159900742259   -1.50231899880776    1.27205960175273
H          -1.71307082619504   -0.31551577860566    1.55453427214687
O           0.54432084258496    2.46652996279166   -0.45736038159685
H           1.36864578509481    1.96494618767915   -0.40161394821056
H          -0.33249637546894    1.28951059853330   -0.61965712471994
H           0.34704114725847    2.75941872741751    0.47373900375908
N          -1.01415270801965   -2.40509685347369   -2.87107543467570
H          -1.00570465511185   -2.71563734719553   -1.90355058104852
H          -1.93047405534191   -2.04141575943293   -3.09620438811845
H           0.10412033813870   -1.35448949769450   -2.65129041737310
H          -0.81226295136836   -3.18924143317286   -3.47696607714883
