    23
        -45.37283340  Gyration_radius:  2.3274420893 Dipole_moment: 5.576
 S          -0.21180876016162    0.48274120547814   -1.02397400357094
O          -0.04444088074388    0.06371817458054   -2.39412782626584
O           0.82513907279573   -0.38187965032364   -0.21595246799291
O           0.03823950074051    1.87592302711079   -0.75696650592118
O          -1.53190377026641    0.06007432782775   -0.48468033002556
O          -1.55113841365496    1.66063604116267    1.64863580307464
H          -1.71122647964698    1.10589803942631    0.86156371049302
H          -1.26583698104137    2.50879782572336    1.29736061281387
O           1.87523266812501    2.70663001913947    0.97763405887635
H           2.68864480272723    2.87243334012433    0.49994256008892
H           1.19730855079568    2.50785575708884    0.29729722889336
O           0.61077815053326   -2.41190758610086   -2.17342058571293
H           0.36190495168486   -1.47736685650982   -2.42061214753213
H           1.50231726283143   -2.33540934871953   -1.82386434601492
O           0.80782983900904    0.53008941775072    2.14654958370537
H           1.37618997798987    1.31068683540447    1.99851231366194
H          -0.10437049225480    0.90352090450757    2.18476725182936
H           0.85349961547453   -0.04562381970543    0.75186230768926
N          -1.15723972072597   -2.42454114538631   -0.25575620696804
H          -1.97056164376705   -3.01149456170819   -0.41247909827023
H          -0.41562454157549   -2.55717489955373   -1.02787794451535
H          -1.41944044125656   -1.34779131118342   -0.33509547035065
H          -0.75349226762371   -2.59581573614778    0.66068149201860
