    23
        -45.36785513  Gyration_radius:  2.34299901419 Dipole_moment: 6.495
 S          -0.59001751148609   -0.23673094268412   -0.72451298532432
O           0.13912081992482    0.91114503180361   -0.15410070848167
O           0.19610158707130   -0.73672464224696   -1.95640745500341
O          -0.59743829263690   -1.32209361553720    0.27662060051192
O          -1.91868442757004    0.13756794080220   -1.13631794077705
O           2.62268808324088    0.06938532815866    0.45919912368599
H           1.71688487569639    0.42217519144782    0.36384532224731
H           3.12176179764934    0.54352729605966   -0.21777886000389
O          -3.42678172742825    0.86515889294821    0.87336933120006
H          -4.19748893449080    0.29469340843610    0.84738489239888
H          -2.94016969894896    0.69233807490283    0.02774327302103
O           2.15806846582686    1.47034486991820   -1.98699294843224
H           1.36975169152946    1.49347369630477   -1.42415021643564
H           1.91803747625111    0.92379588848335   -2.73821261016522
O           1.81371204661570   -2.20405223102482   -0.65128381231326
H           2.31090757102222   -1.48202912381896   -0.19488338563312
H           1.07574115893534   -2.41573778961688   -0.06438455383536
H           0.90558378742759   -1.36601734711752   -1.58980561939694
N          -1.13811227920712    0.39712343578113    2.06219750354422
H          -0.91561231036753    0.39757653297775    3.05225024223625
H          -0.54154346639498    1.03526212502648    1.49802693216559
H          -0.93758784188009   -0.52737116698071    1.54134196590001
H          -2.14492287118955    0.63718911657537    1.83685192915411
