    23
        -45.36785512  Gyration_radius:  2.34303675591 Dipole_moment: 6.492
 S           0.25509023637308   -0.08151711294571    0.92619609941600
O           0.80923859059637    0.23811506799143   -0.40247673830909
O           0.66252849876282   -1.52941032484962    1.27712912245309
O           0.76778958272802    0.80803136016795    1.93658972941642
O          -1.21801234815699   -0.03727899261301    0.83444886734347
O          -0.16201817575059   -1.57373759099795   -2.14240963804396
H           0.64590056854323   -2.07230763133687   -2.31821995444329
H           0.14711700319661   -0.82280945212452   -1.59969162219734
O           0.02791743265325    3.28885340260125    1.56129012921737
H          -0.42105099880168    3.55674163837156    2.36552458567384
H           0.43871491583234    2.41089525852587    1.76663765916201
O           2.45153753386788   -1.91725268651643   -1.04093348464971
H           2.09403660883621   -1.04701666334294   -0.80928973843575
H           2.49249643280454   -2.40327054335967   -0.21461987255719
O          -1.25336778640212   -2.64550879276394    0.02930525887605
H          -1.80736939397423   -1.90607512242212    0.31244827457808
H          -0.96544359264466   -2.41902077697632   -0.88861388370015
H          -0.03721708003371   -2.12300888329114    0.83932843408302
N          -1.01881789324873    2.09558966138449   -0.52469305079030
H          -1.40466097302211    1.24861538659390    0.02300545034843
H          -1.63411936690559    2.47088402107670   -1.23900754487776
H          -0.71885618675328    2.79634968433110    0.21081446989778
H          -0.15143359918634    1.66413906065930   -0.90276257234542
