    23
        -45.36498113  Gyration_radius:  2.32069639776 Dipole_moment: 6.812
 S           0.18743488037455    0.42661968497879    1.07185360983338
O           0.42125925777074    0.16786270844305    2.56264598743598
O           0.15058648293837    1.83540134408203    0.81486369661550
O           1.16716817896584   -0.31777190207209    0.31098926666461
O          -1.19252055569702   -0.18295030656970    0.79278006483405
O           1.41055373809991    1.83320236444679   -1.59695346221750
H           1.90364612933207    1.02414564071182   -1.43403441866366
H           1.04659336957484    2.08067180665964   -0.73240509544133
O          -0.33655732319655   -1.48010527718501   -1.63101289897532
H          -1.12816973204009   -1.65925757049401   -1.11747635020003
H           0.31242060255625   -1.12709993269617   -0.99789812678801
O          -0.92842039351393    0.97963724080074   -2.67059852954702
H          -0.06960712613984    1.41392183273198   -2.49173595385599
H          -0.75773694030623    0.02597595003604   -2.55332447607982
O          -2.27759866607204    1.57456746144114   -0.56099818549588
H          -1.79687436358983    2.33129107389708   -0.20646019301802
H          -1.86177234087846    1.38458442557934   -1.46797612927947
H          -1.76460726231456    0.53820169191957    0.23534753899330
N           1.12180186591786   -2.28767002581438    2.36246235337195
H           0.37367883603223   -2.96699430171247    2.32524298079227
H           0.68387913163517   -0.82765241862687    2.63889419415613
H           1.87650134674963   -2.65856845959125    2.92425966965414
H           1.45834089383098   -2.10801302099227    1.42153443720407
