    23
        -45.36498098  Gyration_radius:  2.3207200983 Dipole_moment: 6.808
 S           0.73830287423355    0.89986530887015   -0.09861527510799
O          -0.23214372749810    0.75917124729577    0.96499505004999
O           1.28597937448638   -0.49466721545291   -0.42823652826665
O           0.25295442897292    1.51991153627112   -1.29538887733437
O           1.95036589276029    1.66593135482902    0.43833041183588
O          -2.02865403626891   -1.42726904081896   -1.67333451443952
H          -1.81920174518525   -1.77863053920842   -0.78729682694157
H          -2.37682867655067   -0.52673703092641   -1.51209972063530
O          -2.41070286140811    1.14026057327495   -0.89026632992639
H          -2.34813130770178    1.10682076107036    0.06851635214759
H          -1.54703335362360    1.47002092716214   -1.18441779419931
O          -0.93343319162888   -1.86058463308626    0.79513519214827
H          -0.07829160580334   -2.22695722173663    0.55645379015306
H          -0.77612900009392   -0.91506284778263    0.96214156311429
O           0.30065090531875   -0.93283107925610   -2.64955713376474
H           0.94079965261802   -0.75997454743597   -1.41307079964965
H          -0.63525657891156   -1.21853357346640   -2.37686057103407
H           0.21973696321294   -0.01758035247732   -2.94154768526889
N           1.93793049682291    0.68136223759055    2.80316386123752
H           2.13015395702302    1.26256515688851    3.60819027635202
H           2.08998733449007    1.33232811088261    1.40503349160878
H           2.40213161142249   -0.20929098807884    2.92109125965944
H           0.93681258330450    0.52988183560580    2.72764082826277
