    23
        -45.36498103  Gyration_radius:  2.32075773579 Dipole_moment: 6.812
 S          -0.22489093028282    0.09958451772044    1.14208502580500
O           0.02537682742524    0.82082791903728    2.46918520606087
O           1.04513985378705   -0.33134772616547    0.59965894101922
O          -1.20050376701647   -0.93451070182222    1.31838069697962
O          -0.78981947477644    1.18733631807279    0.21952977985134
O           0.87585296464406    0.42966552115806   -2.00325319038059
H           0.39227947644647    1.25111122066372   -1.88557802576436
H           1.06400343188201    0.10526312817542   -1.10547461273619
O          -1.17425154142336   -1.33542156942193   -2.40670403208575
H          -0.40399762955815   -0.74784118306287   -2.52428153574021
H          -0.86060574187336   -2.04702655330643   -1.81224824479426
O          -0.13081910714995   -2.78429153419369   -0.36616454140545
H          -0.61903996945315   -2.33608398215459    0.34234245820925
H           0.77147213322144   -2.46237095077501   -0.28546757622638
O          -2.69541735785700    0.03320045415746   -0.84557507162396
H          -2.88726846680811   -0.58944570125220   -0.13495044945955
H          -1.66405547933743    0.78738401296312   -0.26489414776126
H          -2.20564642115551   -0.50238116964726   -1.55618807424482
N           2.22915160606924    1.95147523327648    1.81654541854132
H           2.99428123250193    2.01274027857223    2.47497781307805
H           0.89301768652032    1.36411929937805    2.33617911006918
H           2.15461461742096    2.82646142694842    1.31517932578100
H           2.41112606678302    1.20155174167386    1.15671573683669
