    23
        -45.37350746  Gyration_radius:  2.31032706783 Dipole_moment: 7.160
 S           0.06647976285418   -0.61547956403397   -0.92819779447085
O           0.07002993841917   -0.62231007049593    0.64436914567884
O          -0.49981022548262   -1.92759479782838   -1.25138411357262
O          -0.83695580281266    0.46607895137418   -1.32211515468120
O           1.41367786818105   -0.41912153489566   -1.39702480722138
O          -2.58672749130467    0.58792546028717    0.57112297538613
H          -2.10313706833382    1.03544747963263    1.27020862197766
H          -2.00962463493424    0.66499695731410   -0.23436909473105
O           3.40349662349769    0.19691576296637    0.26050408683140
H           3.88132635332873   -0.60726482609718    0.46602996853687
H           2.74732440674331   -0.04649549284847   -0.42624940415701
O           0.91240864078593    2.45223107110611   -1.10982597837278
H           1.67782667449468    2.10617613100400   -1.57669309317466
H           0.18825948742051    1.82860609700307   -1.31514632913386
O           1.29285474910752    1.48342201601216    1.33494163573765
H           1.13548400946692    2.04626954904712    0.53930204949670
H           0.55245306534389    0.22004589296463    0.97761526364365
H           2.20442249938151    1.15561035826175    1.21436146059072
N          -2.33234511960299   -2.02438919196516    0.47615534998381
H          -1.54728498317820   -2.05392129596177   -0.32329409152758
H          -2.53189995145001   -0.98160052879578    0.61147326655007
H          -3.16538835309848   -2.53115029339083    0.19382979086976
H          -1.93287045882963   -2.41439814065542    1.32438623575998
