    23
        -45.37702308  Gyration_radius:  2.38009914625 Dipole_moment: 5.242
 S           0.39139462108593    0.59465693679263   -0.60295224329867
O           0.70424361904149   -0.11393304776616    0.66022693798827
O          -0.03642468434086   -0.53471001494011   -1.60947620202282
O          -0.80388512117396    1.40804473643974   -0.41747313777962
O           1.53256259625648    1.28594731029002   -1.12842695987470
O          -1.71996094187613    2.03758277752117    1.99939474156878
H          -1.07679670792684    2.60083339267999    2.43244955227317
H          -1.43862765721878    1.97789594629882    1.05969482644464
O          -2.65205920209425   -0.46394710447118   -0.70398101484122
H          -2.23809448029272   -1.03551684777287   -1.35722492335262
H          -2.12527124669351    0.36392897521545   -0.74347815045189
O           3.07665361436655   -1.17635223820094    0.06711706844609
H           2.21255034081881   -0.82833499394571    0.36567528356097
H           3.70908007077253   -0.47619095957051    0.24148814191362
O           2.34240062144733   -0.85933020662519   -2.50201021668589
H           2.75280536754922   -1.22857723006942   -1.69201965359964
H           0.81980580645439   -0.79649261321378   -2.06047812218008
H           2.39847666106172    0.10133982339768   -2.37794030241066
N          -1.58691542888423   -0.60470518921638    1.70673542337594
H          -0.57551327562558   -0.51531836214223    1.34468692552648
H          -2.17746493427545   -0.72974309262890    0.83891884894637
H          -1.70469134579754   -1.34876801851919    2.38497054450058
H          -1.80426828262527    0.34169003045049    2.09410262195267
