    23
        -45.37104872  Gyration_radius:  2.30400661543 Dipole_moment: 6.228
 S          -0.94047651006757   -0.50511135644416   -0.03442869972885
O          -1.14190789678948    0.78909882119601    0.63842464772198
O          -1.63999657860222   -0.47958129130423   -1.39631116664455
O           0.49806044567717   -0.71483146692354   -0.25488222503278
O          -1.52254020789190   -1.58558066984973    0.74641846630514
O           1.35270736040983   -0.82141989693889   -2.78422374782762
H           1.08355084847576   -1.66029698150692   -3.16131192951638
H           1.11651749772619   -0.86339620399817   -1.83486034199109
O           1.56761805031435   -0.60783439306789    2.15428704696490
H           1.24511456446591   -0.75167069880131    1.23233395473605
H           2.21328962746571    0.09979449046825    2.10183426493596
O           0.80742512753966    2.08940834182355   -0.62660823885292
H           0.05194098747260    1.77696524882507   -0.09124433405386
H           1.41498534867338    1.34384289740923   -0.65787623288020
O          -0.42657869115329    1.20491540016033   -2.84685426524419
H          -0.01179086544323    1.78912272299485   -2.17581464454019
H           0.28375287055683    0.58859794146480   -3.11806669208552
H          -1.23101248028970    0.24182583899715   -2.01185024315466
N          -0.95509794924524   -0.38324127026371    2.89662822891728
H           0.08922704793243   -0.48921717632926    2.92565627787705
H          -1.14508822430570    0.44194322703381    2.27183195626039
H          -1.30357905901118   -1.14346253198640    2.22242570836454
H          -1.40612132389857   -0.35987100297775    3.80449220947076
