    23
        -45.37036576  Gyration_radius:  2.38256917972 Dipole_moment: 6.214
 S           0.88338878437387   -0.42214036361188    0.36075018238972
O           1.65622376653610   -1.17846542361011   -0.71985909804519
O           1.68193332025726   -0.44881569037000    1.58264620241911
O           0.65655354150144    0.95405156792320   -0.09033589979541
O          -0.40868293618093   -1.09465951443969    0.58586237687529
O          -1.84500218596565   -1.82014438063708   -1.51635368827936
H          -1.94881125137376   -2.76833440795658   -1.42001668218980
H          -1.38958959197475   -1.51218582236190   -0.70228727940389
O          -0.50457494268751    2.31750444766310    1.82121791782104
H          -0.12957475174108    1.87027967542557    1.02065732092412
H           0.07602805776099    3.05981823698869    1.99797031943701
O           0.35813963124714    1.59250102297198   -2.65084354710736
H           0.40381123178911    1.44112284296742   -1.68266173038307
H           1.18162746292887    2.02011041899059   -2.89180137962287
O           0.34095334399861   -1.07362223403426   -2.86353026289485
H           0.27766293494288   -0.10174401745166   -2.99379271102698
H           1.14596558053387   -1.16903731058243   -1.62824627602734
H          -0.54919953154785   -1.35774195310388   -2.55890007680170
N          -0.40689149110561   -0.06240088274103    2.93606673552267
H           0.62529097159740   -0.22878390124022    2.66389281847915
H          -0.68284084990246   -0.37797211602654    3.85923322212450
H          -0.58704800325145    0.95796073482590    2.74884029684471
H          -0.83536308173875   -0.59730092958830    2.14149122874060
