    23
        -45.37369008  Gyration_radius:  2.38607515416 Dipole_moment: 5.388
 S          -0.60639163053693   -0.88580764272415   -0.50255436235277
O          -0.13121845561378    0.49881510843004   -0.60581436436572
O           0.46380801871809   -1.59976983940284    0.43933311732957
O          -1.85417696482272   -0.95625304775698    0.24477051589625
O          -0.61632989132664   -1.58161951258053   -1.75885353333089
O           1.64048590947541   -1.73978974245172   -3.12640826180490
H           0.73591508989142   -1.66720415297628   -2.74816037018273
H           1.75699478369121   -2.66468776602861   -3.34927199494181
O          -1.43488715176807    2.70751588780655   -0.06733723991494
H          -0.98491298706112    1.91036104373255   -0.43501390226354
H          -0.85613004739589    3.44923003738138   -0.24976622457605
O           0.76409087040794    0.21133715922728    2.42994192164288
H           0.65707798966448   -0.57516980821326    1.85931053863236
H           1.47688064704938    0.71778997990002    2.03329977789642
O           2.34485688820638   -0.47392212323308   -0.88184626501196
H           1.64944377760764    0.20035778766623   -0.96245200624326
H           1.32068911781012   -1.34997604018830   -0.01557749950729
H           2.35128625405445   -0.92429587513547   -1.75312769140217
N          -1.75433140852105    0.96539347451611    1.92399587350008
H          -2.46729530863988    0.99605203764603    2.64407174220944
H          -1.90597583368481    0.13067627526147    1.24195576913884
H          -1.75369186428700    1.81991093902984    1.32457954120393
H          -0.79618781292259    0.81105584009289    2.31492489842551
