    23
        -45.37592463  Gyration_radius:  2.46823970293 Dipole_moment: 4.015
 S           0.25424597737866   -0.81598214197912   -0.97976948358963
O          -0.18548236527882    0.45848418137488   -1.53041538599276
O           1.66101387325914   -1.08277309714230   -1.19670610798064
O          -0.12192422933524   -0.92311625369270    0.43354004337045
O          -0.58000476403913   -1.90926151061516   -1.74337604019033
O          -2.45991843775156   -0.09373707391247    1.24402813031379
H          -3.10570841632473   -0.66172293003498    0.82075220245626
H          -1.57883974762462   -0.49767748743983    1.04148154091720
O           1.96189363309159    0.59755445422979    1.01473969751091
H           2.42507549841962    0.37616647364852    0.20036131808114
H           1.21165294374249   -0.02742267563835    1.02021331575003
O           0.66160536058001    2.81040187059425    1.62986585208203
H           0.57555579063979    2.73112233605481    2.58185930615115
H           1.26315352556989    2.07265074145808    1.35940392704786
O           1.36300057998515   -3.66940553398999   -1.38179237692860
H          -0.06679101808648   -2.73588674897248   -1.62798526486516
H           1.79985936022320   -3.99265764145473   -2.17294285513964
H           1.73099361113631   -2.77562100052412   -1.21115063763187
N          -1.38374725779506    2.05754968131917    0.10213857416028
H          -1.98099654619681    1.37908572506617    0.63193159574476
H          -0.88254182173672    1.45781939336154   -0.63592052797839
H          -1.92658388170045    2.79344050764014   -0.33520006054846
H          -0.63551166815528    2.45098873064469    0.73494323726709
