    23
        -45.36681897  Gyration_radius:  2.334320828 Dipole_moment: 7.061
 S          -0.74918791445931    0.35577245091630   -0.86206318685457
O           0.02250829762864   -0.78848938025578   -1.37712043699483
O          -1.49506588715727    0.03471750732738    0.33250075549464
O           0.29623408395175    1.45509637074865   -0.53561546277726
O          -1.55625699774075    0.94617270967711   -1.93416726382875
O           1.38760163732771   -1.80899690450239    0.74253725429131
H           0.65476271961708   -2.13769048858654    1.29963727817218
H           0.96983230240440   -1.60289595429213   -0.11066830124502
O          -0.98454145005633   -2.07637735421975    2.04821089651521
H          -1.35221541084932   -1.51009383934121    1.35141478853965
H          -0.94219167524498   -1.51816696148304    2.83055645107700
O          -0.80235530615978    0.82688277585237    2.79381725189623
H          -1.18909428542718    1.67324534757635    3.02152732951508
H          -1.15905254861872    0.58760541785517    1.91371928093065
O           1.58295519405086    0.69865744663860    1.47927761381400
H           1.67465757997479   -0.27289684163634    1.27805224523439
H           0.87582322981460    1.18853011723217    0.29357803865535
H           0.89329764207764    0.76014348828286    2.16723328520026
N           0.41438131302387    0.65285998419375   -3.41022768025678
H           0.54483774608568   -0.14242987710010   -2.70336769389686
H           0.34211380142469    0.33754294435965   -4.37203482823182
H          -0.55646036388354    0.97397436151772   -2.95039826184209
H           1.12741626221690    1.36683666924092   -3.29639934340560
