    23
        -45.36866953  Gyration_radius:  2.27871614239 Dipole_moment: 3.043
 S          -0.72862976942232    0.45048639370515   -0.02230453657080
O           0.01899408497181   -0.69447140452410    0.55634150405673
O          -1.51843855993318    1.07344810875027    1.16019580139729
O           0.19157052295444    1.45333643565669   -0.51742411899824
O          -1.65343037098598   -0.01948625387258   -1.03751990535599
O           2.77039148610050    1.04078425750988   -0.27577452211747
H           1.89804971311559    1.46036958329083   -0.45579188513208
H           2.75005969248017    0.91796495156214    0.69821334658238
O           0.25026749317250   -0.21834468501452   -2.84929748749347
H          -0.56839401701683   -0.21764079155779   -2.29978325283068
H           0.45558987629998    0.71138098847202   -2.98378579636882
O           1.72100331927125    0.63075291617118    2.15148767763715
H           1.06758915556781    0.05549319248608    1.70856765878659
H           1.22888940262270    1.39382497487452    2.45995465823282
O           1.85356728267817   -1.12408354791759   -1.08072447288304
H           2.41553113788296   -0.24438553590753   -0.79112439511483
H           1.11299946614985   -1.12418162893859   -0.35093776882311
H           1.32337753569635   -0.85708747557991   -1.91766106429876
N          -3.02123561475209   -1.03511574533096    1.22583675403095
H          -2.50584080414766   -1.81031123717156    1.62213917167250
H          -4.00786403854099   -1.17753442110926    1.39916426147730
H          -2.19803137130962    0.36373011653377    1.37798238310308
H          -2.85601563278400   -1.02892921210158    0.22224596898128
