    23
        -45.36804240  Gyration_radius:  2.35857506246 Dipole_moment: 4.834
 S          -0.62103741613616   -0.29964111578160    0.84625010455374
O          -1.55139865404037   -0.19519531522417   -0.24871597506308
O          -1.37712504300541   -0.53252130770738    2.15642031455700
O           0.37734985395298   -1.32925025035644    0.68776230456693
O           0.05963720264154    1.04610368797489    1.07170960166491
O           2.92724021203810   -0.72046329396014    0.12007111065928
H           3.48036493849714   -0.65216999113303    0.89961180560174
H           2.04829069802957   -1.02200808228493    0.42689348905360
O           1.19791741737507   -2.20705111307627   -1.82284003657525
H           2.12919138982224   -2.03689705653391   -1.65197694578704
H           0.76348526307478   -2.16264413219002   -0.95791002880674
O           0.03678820381130    0.16626857304251   -2.43185243778350
H           0.44136718661331   -0.72351820158530   -2.47983451095046
H          -0.71235523296262    0.06378124301632   -1.82192373923674
O           1.60397072531922    1.43916817921208   -0.80892787702577
H           2.28609335485858    0.76290541917627   -0.61332418906101
H           1.05578716236878    1.06493085710873   -1.56378377240100
H           0.74689867456420    1.30104553948473    0.25506889891891
N          -3.07175817202112    1.29512105505973    1.60497717295417
H          -2.93155406423460    1.05586571462190    0.62717098897754
H          -4.06071387333614    1.28821837835147    1.81705867614528
H          -2.12447019337937    0.17506157997554    2.11918625444160
H          -2.70396962388848    2.22288961281917    1.76890881060477
