    23
        -45.36548068  Gyration_radius:  2.53288228695 Dipole_moment: 5.713
 S           0.41554150399431   -0.19511191381273    1.00095292654717
O          -0.38257265372803   -1.33825529687251    0.56459557924967
O           0.85459443831630    0.54861113368988   -0.32574102153389
O          -0.31150654641537    0.72173067886039    1.83339911186155
O           1.69794886103481   -0.62178720955104    1.58176025990134
O          -3.03352549669615    2.20897268777589   -0.62133538690774
H          -2.51943963814728    2.53487566020951    0.15482986662851
H          -3.02358189950940    2.92145972374708   -1.26256673182623
O           0.87623882429550   -3.12777559519167   -0.81250254619068
H           0.81531640284335   -3.94170284454910   -0.30938877879600
H           0.29745495874977   -2.47454713968284   -0.32995763106418
O          -1.52330806311544    3.02118684106161    1.42092025645924
H          -0.99590237791654    2.20293712888998    1.55529245046268
H          -1.98268144565461    3.16106601030626    2.25108751383050
O          -1.42144339192362    0.23166857201144   -1.40844048313399
H          -2.08226005720075    0.91509961476978   -1.14187393490198
H           0.00385839627783    0.56697545680118   -0.86527960662397
H          -1.51543799986791   -0.50312045533728   -0.78604380822979
N           2.81263014314145   -1.37779972573131   -0.52856183432581
H           2.18391310605676   -2.19414435538246   -0.77393709671632
H           3.79811733069827   -1.61722208702789   -0.53010804760913
H           2.60838022984659   -0.59543062369497   -1.14815809911516
H           2.42766538491280   -1.04768625127867    0.48105703203454
