    23
        -45.37287950  Gyration_radius:  2.31558662484 Dipole_moment: 6.135
 S          -1.03653802421071    0.21811080270074    0.02381775670681
O          -0.65382104210927    0.83401288166560   -1.24035185708018
O          -1.12107938030018    1.16924385268997    1.11172395043133
O          -2.22400174489976   -0.62679594273543   -0.11558256306962
O           0.09630326602801   -0.82169472480710    0.35605655278739
O           0.58561033496647    1.05356361757277    3.19004314207449
H          -0.14632990004357    1.02725297530412    2.54275489856331
H           0.54726099831726    1.92308257320216    3.59282278072541
O           0.76537315958854    2.77786951980551    0.06609235957690
H           0.54163916528158    2.58445039538371   -0.85051235882015
H          -0.00179362539684    2.43612205904235    0.55960970823823
O           0.55283556242508   -1.05749975767368   -2.50361051314311
H           0.09390029247093   -0.24727741985835   -2.14809750474434
H           1.41601296856873   -1.06111039020907   -2.08215446972999
O           2.08252831972650    0.63315025891934    0.98100630916030
H           1.81478122022811    1.49543936455366    0.58699101329110
H           1.84143737467081    0.71641915224509    1.92510810260178
H           0.93745514173232   -0.29715218441360    0.60099457810762
N          -1.22337827516619   -2.59388438552146   -1.33426210534769
H          -1.75052098568351   -1.76735070989594   -0.79706593365735
H          -0.45639806465050   -2.08793404202166   -1.88459893368266
H          -0.80679148832228   -3.20367411069777   -0.63704985770326
H          -1.85448528323028   -3.10434376524111   -1.94373505528144
