    23
        -45.38058051  Gyration_radius:  2.27250921786 Dipole_moment: 2.305
 S           0.57342786037982    0.28241782661070   -1.35044304691038
O           0.71187307242164   -0.78847989389863   -2.29884140235758
O           1.48983193626311    0.14588840398155   -0.21088339897186
O           0.94145561426601    1.61943700724995   -2.07793283472134
O          -0.80397712068126    0.42420085976835   -0.85834781387595
O           0.61126249471680    1.52772149419123    1.93888212480688
H           0.28684323433640    2.34315888214828    1.54029744665239
H           1.09529992755125    1.07536046170728    1.22162070455578
O          -1.33903878365797   -0.28392151010581    1.69804930977538
H          -0.74574714371562    0.41547175246192    2.05525613797277
H          -1.42602159067610   -0.04511351774874    0.75603721191688
O          -0.47688883074320   -2.89090028200809   -1.29563630593896
H          -1.40848445734122   -2.71077188218709   -1.43822998881440
H           0.00530092317883   -2.19393455618763   -1.80295085161442
O          -0.54517994490266    2.92656623281860   -0.24539430529086
H          -1.25370318610174    3.49182002262618   -0.55862602409452
H          -0.83618349443501    1.99535300077012   -0.39478743302783
H           0.64376969715452    2.32338823186775   -1.47800740391312
N           0.51081836950964   -1.96505035655501    0.98469882094327
H           1.09974072591179   -1.20169963398508    0.55087282750108
H           0.11738836612042   -2.51965098500969    0.17897242830635
H           1.04212127743864   -2.53940903176403    1.62956151182607
H          -0.29390894697962   -1.43185252675419    1.45583227526425
