    23
        -45.38058041  Gyration_radius:  2.27312012047 Dipole_moment: 2.299
 S           0.63531888067209    0.97568124240862    0.93483562797872
O          -0.35968659256722    1.46657795184821   -0.02748221927187
O           0.57679593672594   -0.49135906644931    0.99609767379097
O           1.95816479877044    1.46279483004142    0.65491080357566
O           0.21388992421957    1.51165025921463    2.34461056708431
O          -2.53779942114872   -0.13128735495148   -0.10255712100929
H          -1.87060845547119    0.58160483583583   -0.10532671577897
H          -2.67338892185592   -0.33744070775668    0.82919524278712
O           2.89757350627770    0.10199202424422   -1.37138063980053
H           2.68686975015475    0.69395559331338   -0.60921119107243
H           3.15588997296569   -0.73505003491478   -0.97989180724568
O          -0.67004579582642   -1.81518387822500   -1.00761068599991
H          -0.11630800836551   -1.59444954107882   -0.23518043075668
H          -1.53701368013808   -1.40314987157817   -0.78995274110956
O          -1.51890845197102   -0.54835987866622    2.51520672989611
H          -0.74103425016257   -0.73695332764231    1.93760231439714
H          -1.44976037620095   -1.13242680647416    3.27265400278092
H          -0.58113805943487    1.00464972938066    2.57935055877951
N           0.38521028973498    0.23309135284380   -2.21088312785398
H           0.13082381748119    0.54286444701800   -3.14220173098774
H           0.05101985047245    0.90092746482695   -1.46245082508010
H          -0.06439568913759   -0.70356776329425   -1.93796683328807
H           1.42853097479099    0.15343849004931   -2.08236744183278
