    23
        -45.38058034  Gyration_radius:  2.2730529615 Dipole_moment: 2.304
 S           1.16144830693901   -0.53215947139437    0.77340590524327
O           1.34643016258925    0.68414230132424   -0.02871728050363
O          -0.27357882419320   -0.82018035634447    0.90433941055267
O           1.90245885865328   -1.64992398270335    0.25662740131449
O           1.70071152656385   -0.22074575389159    2.21020587595252
O          -1.99127433777340    0.38518048905786   -0.80347789937252
H          -1.76259633941658    1.27919174387047   -0.46128678062880
H          -1.59412499908488   -0.21561521872637   -0.14516059744280
O          -0.68855165785180    2.42570817905913    0.32990835880655
H           0.15002347396830    1.94687750863524    0.18547038797383
H          -0.84556266867027    2.36600429241614    1.27901702276632
O           0.62526954173580   -2.55055528331903   -1.84045051080003
H           1.21486724454742   -2.33003952584370   -1.07923806231815
H          -0.10132629217483   -3.05085603817166   -1.46311427576293
O          -0.66895390729887    0.94718827586745    2.75477197865969
H           1.05107349793804    0.39053754267151    2.59553484932871
H          -0.72791540014007    0.24556131992968    2.06312963589781
H          -1.16312738021657    0.63065666294494    3.51323862632497
N           0.13673957540120    0.02333366633435   -2.25204658807388
H           0.30922659403417    0.48176175715085   -3.13980225693936
H           0.29748017433612   -1.01767148970154   -2.29673861034978
H           0.77227080116507    0.38189272500929   -1.48692467554717
H          -0.85098795104269    0.19971064582652   -1.86869191508435
