    23
        -45.37164942  Gyration_radius:  2.36914684175 Dipole_moment: 6.478
 S          -0.98800701615823    0.10356680420731   -0.09291243787842
O          -0.47189004010668    0.88495809354456   -1.22823654178901
O           0.22318599811928   -0.78020053928610    0.39166176783380
O          -1.41075812725480    0.92794979109920    1.00974021605220
O          -1.97638637419136   -0.87135728116696   -0.54368132994712
O          -0.24683739861582    1.01483182347853    3.40365437087303
H          -0.77845384555827    1.04398744788236    2.58100330483556
H          -0.63780962632220    0.33009199925042    3.94777993231542
O           0.68904803581139    2.76324758521405    0.27218842621181
H           0.29417376145927    2.18191800134332   -0.40573494760296
H          -0.03901885098977    2.98564518624608    0.85935725066819
O           1.20457144392082   -2.52697196923277   -1.43172604298973
H           1.22528070208575   -3.40648461619502   -1.05102843773413
H           0.98556868331053   -1.91619472334175   -0.69890277379256
O           1.76716698562859    0.75396221366097    1.63990146674133
H           1.60128507989716    1.58838252474215    1.13980392503282
H           1.25663606419658    0.85874777340566    2.46895641114488
H           0.90662928696666   -0.17973709692583    0.90442723415132
N          -0.71868864078058   -1.17885786588944   -2.69757040020101
H          -1.09308969708841   -1.26835704365368   -3.63528108502654
H           0.06716963916564   -1.83204434460307   -2.49417336234528
H          -0.41734063371985   -0.19786117860418   -2.44226398206963
H          -1.44243541975424   -1.27922258518125   -1.89696297449238
