    23
        -45.37367568  Gyration_radius:  2.49359418039 Dipole_moment: 4.204
 S          -1.14221886664677   -0.10006406937048    0.71331692499742
O          -0.91428409556230   -0.11850662427203    2.14417217994353
O          -0.40972371583109    1.01149249215209    0.06921855197585
O          -0.84325780707836   -1.34877347725478    0.05028352502675
O          -2.66589359244199    0.18240286358070    0.46275054939040
O           1.75973763985049    0.31631306983556    1.45015463093420
H           1.01768771088863    0.76784772419424    1.00574329746774
H           1.32089482927949   -0.23120651096172    2.10803611315791
O           3.12618911677964   -0.35622540429800   -0.71667669268127
H           3.92085478189204    0.17767797288832   -0.66560086414217
H           2.67433519284953   -0.24321491963027    0.15486993951424
O          -0.51647285341275   -1.93379177218394   -2.45417545347716
H          -0.08709603320050   -2.79158386976353   -2.44399777210425
H          -0.80641518876790   -1.77742305349389   -1.52003853675009
O          -2.71601203060318    1.70610906182744    2.63413398340134
H          -1.92114507113094    1.13111683801611    2.67162445925242
H          -2.89100058444489    0.87828389132149    1.11272277939094
H          -3.29607389489885    1.40658571718703    3.33771995711497
N           0.89093825505405    0.27729191799358   -2.05294715496743
H           0.94474460574338    0.97519474647858   -2.78633487113224
H           0.40462408393310   -0.60026673655298   -2.38103048972103
H           1.83750164686337    0.03296729432563   -1.66991860680059
H           0.31208587089305    0.63777286796982   -1.22402644979040
