    23
        -45.37367566  Gyration_radius:  2.49343315928 Dipole_moment: 4.203
 S          -0.13735017489042    0.19214378723525   -1.32902749394232
O          -0.54159829634646    0.94253306360747   -0.12050414629054
O           1.03847797775003    0.77761974513950   -1.94076765269409
O          -0.00839088840984   -1.21495019166700   -1.02610592479963
O          -1.33206191546021    0.32158209601880   -2.33913406065433
O           1.99839761686758    0.91768759956165    0.68257099297345
H           1.07684908003878    1.13223119231224    0.44439679902465
H           2.39607636761742    0.68954522129601   -0.16297899225481
O          -1.42244357975121   -2.78931386907356    0.47159037757604
H          -0.97483595247260   -2.26047458738301   -0.23638386268014
H          -0.86440877691639   -3.55875914197252    0.60146487350994
O           1.48559386353849   -0.58090928818296    2.80539981888661
H           1.81816442411084   -0.06362182872240    3.54091513262671
H           1.80448987310265   -0.12006561782457    1.99148334883039
O          -0.31721001973494    2.61391460906968   -3.20819379857609
H          -1.23696398802777    1.22249367313627   -2.70893443268061
H           0.38519244286286    2.11899597004668   -2.73326642980394
H          -0.05631387790560    2.62823613628125   -4.13175236744908
N          -1.04058751449911   -0.59467841619005    1.90986446585340
H          -1.77598517381144   -0.26693457151551    2.52598214124230
H          -0.11102146746906   -0.64369811650410    2.39550752955284
H          -1.27056899818144   -1.53537393278241    1.48978516693611
H          -0.91350099200718    0.07179648809550    1.07808852481114
