    23
        -45.36595804  Gyration_radius:  2.39096129627 Dipole_moment: 8.915
 S           0.64128831502860   -0.41739417068309   -0.59530199004168
O           0.38539633608359   -0.67860139704064   -1.99003159722292
O           1.97981396003319    0.00751260602791   -0.28074522886493
O          -0.35491147464641    0.75116773440368   -0.20254083085746
O           0.20417557037600   -1.54475428703319    0.26639316155925
O           2.54268163023749    1.27354948030908    2.10844974722781
H           2.45960784879421    2.12928193897487    1.66226433489109
H           2.69897386922359    0.65061989908424    1.38127680524283
O           1.82082941696888    2.73962923413193   -0.17728194970974
H           0.90412693649456    2.88930679266282   -0.41671433099248
H           1.99895047242531    1.81207370772042   -0.40581847790236
O          -2.04666193566518   -1.19047738039048   -2.66428898861489
H          -1.10702031875360   -0.89332239370424   -2.51231313419530
H          -1.98346442926922   -1.93161349386831   -3.27011439722530
O           0.08768229780257    0.33303697518791    2.27233297701030
H           0.27601696318447   -0.58323305017031    2.02867721138281
H           0.97789993831154    0.75014393160198    2.41376330788409
H          -0.25107762529505    0.78042613280132    0.79741469237559
N          -2.28751541841360   -1.38657055485353   -0.06659778608979
H          -2.36028023222950   -1.37072732753661   -1.13085714084335
H          -2.86691266540728   -2.10616782625501    0.35387804736905
H          -1.19640094418985   -1.54826888405153    0.13196559715307
H          -2.52319850110828   -0.46561764733152    0.29618997045501
