    23
        -45.36595802  Gyration_radius:  2.39089625345 Dipole_moment: 8.914
 S           0.62680693035658   -0.19444373220907   -0.71372096932785
O           0.53030070289799    0.36785650804055   -2.03791771004211
O           1.96234190267595   -0.33177644244821   -0.19555589049063
O          -0.16704358936634    0.80865874781743    0.22189878037668
O          -0.14363842685606   -1.45807110172145   -0.59351018671656
O           2.40843315522119   -0.65229652747703    2.51099933175815
H           2.54336103261528   -0.82971592634321    1.56677811907446
H           2.56092996416695    0.30112493340852    2.58839757444352
O           2.32849522443492    1.90295180065155    1.34478728265589
H           1.50368075090942    2.37199115549345    1.20423076127279
H           2.35294622072068    1.21332138311206    0.66059680045352
O          -1.83020393468059    0.88484845744062   -2.92770427221979
H          -0.88275272296613    0.82232488945802   -2.62283829298526
H          -1.82650939486194    0.56953836849751   -3.83371535885673
O          -0.18063921956439   -0.91225774199401    2.10168902944392
H           0.74381753271288   -0.85837061032808    2.46070381857319
H          -0.20636075484959    0.29475773309248    1.08559873343662
H          -0.14248575302587   -1.58762196819134    1.41113643883845
N          -2.48028646986406   -0.55024069152914   -0.83907638284141
H          -2.58103498609738    0.07927721315601   -0.04610420218603
H          -3.24440565680658   -1.21726772765802   -0.87792419473002
H          -2.39293402797051    0.02639575824629   -1.73246696096928
H          -1.48281847980116   -1.05098449850266   -0.73628221896076
