    23
        -45.36595801  Gyration_radius:  2.39101939126 Dipole_moment: 8.916
 S          -0.87484966048454    0.10122185155115   -0.40575631247437
O          -1.09729367326071    0.12898764215876   -1.83008825073615
O          -0.91467614224449   -1.28221389897045    0.13200734109907
O           0.64046938233289    0.52482293151889   -0.21422059516672
O          -1.69375045247668    0.99819052484064    0.36615849653183
O          -0.99040545803911    1.69935739510097    2.94335569812808
H          -0.57217031684040    2.50261556557247    2.59967512138318
H          -1.59833790547805    1.43667414036157    2.23448118073975
O          -0.11993754979838    3.20821147011142    0.73877394867281
H           0.66480310438534    2.97319293889478    0.23974408251701
H          -0.79836313134618    2.56643276871418    0.46999531733095
O           0.50366898784443   -1.25384273932133   -3.29901261379923
H          -0.06380093282851   -1.69277065371453   -3.93586360560853
H          -0.08632148231074   -0.60677602256700   -2.82209766590237
O           0.58708655098330   -0.27671634877720    2.20473350304365
H           0.78378743488706    0.33399373601416    0.76274747864835
H           0.09782343170036    0.45121300829568    2.67066286820174
H          -0.09696800642539   -0.90042107998778    1.92642564139820
N           1.15723677441928   -2.21495088843482   -0.95505725392701
H           0.99785175280786   -1.95518400330451   -1.97748935647821
H           1.90845762907987   -1.64039679194874   -0.57971810364946
H           0.21319925051203   -1.89859209279643   -0.44050917822129
H           1.35249041259913   -3.20304942336009   -0.82894772174497
