    23
        -45.37874211  Gyration_radius:  2.34170994505 Dipole_moment: 4.657
 S           0.08267740407958   -0.07677064913562    1.11507507903826
O          -0.39034198940289    0.66972761790304    2.38578659735416
O          -0.86587500966292    0.21904318639527    0.03658186821786
O           1.41421949551808    0.41411457463801    0.75885203424049
O           0.10093443676450   -1.49866197246256    1.42613114434920
O          -2.20604207639261   -1.62162746584852   -1.27238629565204
H          -1.78435877054231   -0.84733448312770   -0.82665885859448
H          -2.96791352086650   -1.84674060196693   -0.73596994644319
O           1.43336293608027    3.03223499697954    0.39062868221118
H           1.51414422416010    2.05800675710385    0.49209414671338
H           2.07970731079190    3.41471057394977    0.98608906369041
O           1.52186044189358   -0.46945294889212   -1.70522738212821
H           1.63112328656587   -0.11347181793422   -0.79109676072103
H           0.90922332694510    0.13409352578258   -2.13323970166953
O          -1.15460294083454    2.71356801912037    1.03204952913133
H          -0.28359769824007    3.08203067108920    0.77423917753486
H          -1.34764609646535    2.03634524857437    0.36617542457027
H          -0.73452572551901    1.54771254956507    2.04443479595546
N           0.21886983857984   -2.61429794041223   -0.88775553753993
H           0.22106446935549   -2.30658244317236    0.14111740015050
H           0.81664282821592   -1.88614348462693   -1.37208548539118
H           0.56219621569090   -3.55883438307667   -1.02004298899628
H          -0.77112239672020   -2.48166953045109   -1.20479198601683
