    23
        -45.37874202  Gyration_radius:  2.34174904621 Dipole_moment: 4.655
 S           0.54708462949792   -0.86267763283500    0.46331945438164
O           1.86366746651089   -1.15149051778618    1.22426150073105
O          -0.51257780541697   -0.62918420828772    1.44505294781459
O           0.74931993877017    0.33937468214996   -0.35187090924534
O           0.26088607243172   -2.02218591571275   -0.36880105316968
O           0.43875322336943    0.40526469734200   -2.95897956270639
H           0.61721654553977    0.48878560130771   -1.99090430566941
H           1.25126394533940    0.07454473222460   -3.34533151923673
O          -2.27684733123362    0.50646429797765   -0.12319440278408
H          -1.86872189690202    1.36646087605743   -0.25216893769989
H          -1.72581262873356    0.06523402377152    0.56683267993592
O           0.09188456729129    1.34926888338207    3.09131259857655
H           0.06540805041751    1.01135166862516    3.98785251473817
H          -0.22037383692456    0.61600909482222    2.51606562533688
O           2.32324322730633    1.34709955842868    1.59797381361140
H           1.87875670223073    1.42311183697108    0.74012900072750
H           1.63037623284355    1.54953216926453    2.26133439253970
H           2.20954006524960   -0.24425813776137    1.47575920973353
N          -1.49656729661595   -1.14483005526036   -2.02873986454875
H          -2.13058531030292   -1.76023035542395   -2.52553826142991
H          -0.88334123527947   -0.57785587231975   -2.66174711281951
H          -1.99655508017652   -0.47744854363547   -1.37553768339885
H          -0.81601825520858   -1.67234088329732   -1.38708012541933
