    23
        -45.37371310  Gyration_radius:  2.43062451309 Dipole_moment: 4.639
 S          -0.19549254802894   -0.06313347286884    1.04553967160783
O           1.07358501513315   -0.61782409019963    0.54394961647155
O          -1.27890278196480   -1.02734873099560    0.91083622163945
O          -0.01016684123756    0.22663873525236    2.55579261433190
O          -0.51003444071897    1.19238130071074    0.37182342379755
O          -2.34560575528860    0.34949701382778   -1.33910526147201
H          -2.82119949931649   -0.21584388669494   -0.72415517492461
H          -1.68439653470134    0.80430676683949   -0.77464762597861
O           1.34771135522173    3.05274539346001    0.71151499203278
H           0.89713759478120    3.80596762963743    1.09735658825635
H           0.64459374213613    2.40777151033031    0.47974804923151
O          -0.89269333357934   -1.09931932603638   -2.98304325067441
H          -1.52971047503340   -0.53929515954613   -2.46250982187858
H          -0.28377390829767   -0.48287003666530   -3.39379945979485
O           2.38624350023889    1.08621268545347    2.21464887804061
H           2.40501473362261    0.41047996428268    1.52151050679114
H           2.21090978794620    1.92800416781700    1.74172184240213
H           0.91740934150417    0.60306560742026    2.62890435595602
N          -0.05615140544819   -2.41738609837234   -0.85781423239751
H           0.70682113451849   -1.81182616546449   -0.43128610940506
H          -0.81625935129742   -2.16416575411598   -0.17081531903408
H          -0.32810526297905   -2.02125790422314   -1.80347589098987
H           0.16306594279508   -3.40680016979558   -0.88269462401648
