    23
        -45.37796985  Gyration_radius:  2.33879698674 Dipole_moment: 4.750
 S           1.11003611158319   -0.25864321528429   -0.60735386338108
O           2.47402228238629   -0.47362082642540   -1.34150868495476
O           0.70658822233673   -1.53723001389960   -0.02762883620850
O           1.34960653348927    0.75099466025640    0.41029648209051
O           0.13591060890244    0.20808447598612   -1.59386484455030
O          -1.86744801963314   -0.99578869239458   -0.38043065539469
H          -1.13194734679942   -1.50159340574505    0.00948754459253
H          -1.41678575602329   -0.56884145360408   -1.13474374956235
O          -0.46903542861890    2.53431165026998   -0.57642283407106
H          -0.31069437432328    1.75863559889522   -1.16555354132317
H           0.36000068296064    2.58330695146691   -0.08474264011458
O           0.07330816544851    0.59008957870735    2.67891440435116
H           0.59343031043720    1.09185428919515    3.30855914206992
H           0.62667607785587    0.52909186839802    1.86041918772809
O           1.71427013243534   -2.92834111369049   -1.99798841253191
H           2.26752866472633   -3.64236057698850   -1.67377511066883
H           1.18052479031865   -2.62226301261910   -1.23404974076133
H           2.35714428301774   -1.31512878754607   -1.82539917506209
N          -1.98307429961389    1.17426723518464    1.09445617803497
H          -2.08164231363427    0.25753704858299    0.55092332316041
H          -1.48614070940577    1.84984588221470    0.43217751765298
H          -2.87884439146966    1.52720280413651    1.41129104438207
H          -1.32343423637487    0.98858903490020    1.88693724452370
