    23
        -45.37796958  Gyration_radius:  2.33858719641 Dipole_moment: 4.740
 S           0.49733180854772   -0.77144106699799   -0.90955019036074
O           1.32912921553972    0.42741687672238   -0.80773257607648
O          -0.86888543115428   -0.43236976471147   -1.27122325095297
O           1.05559460034751   -1.64769555510294   -2.07847726443357
O           0.55986155761762   -1.56549538904230    0.31505527369435
O           1.01412918902491    0.58273169681957    1.80328387970078
H           0.76889545464275   -0.35143556581934    1.67476773868216
H           1.45662457468410    0.77452273783141    0.95396978273507
O          -2.66725921489088   -0.23729340098233    0.60807027449325
H          -1.98252657244544   -0.45421925362782   -0.07294446912168
H          -3.51357919419679   -0.35867490309853    0.17476972143497
O          -0.46328065164996    2.26799762144373   -1.26790873294490
H          -1.04200065552350    1.64840193927848   -1.72904866114683
H           0.36587067804042    1.74119741791574   -1.17483627449468
O           2.77094647317824   -2.76716451377974   -0.39323981468639
H           2.70013026119358   -3.71851115721156   -0.28859919633106
H           1.85681169501910   -2.06463808209604   -1.70426878951512
H           2.03015014522153   -2.37624819882522    0.11728919797731
N          -1.19253683967462    1.88792794985283    1.23336826357059
H          -1.49686661231943    2.65415052795567    1.82296278879635
H          -0.31141632378513    1.41373159357878    1.61333837024423
H          -1.92218432176434    1.14245609109314    1.13783315402798
H          -0.94493987565269    2.20465238880369    0.24312078470528
