    23
        -45.37796989  Gyration_radius:  2.33888805528 Dipole_moment: 4.751
 S           0.37680177301886    0.51444422224416    1.12292056828951
O           1.36002483922919    0.86187873561391    0.09696872089443
O           0.35628006037742   -0.92467776395389    1.37189745678154
O           0.79503789678203    1.22561430594582    2.45139678772632
O          -0.93932120303591    1.02845701184759    0.78216149116594
O          -2.66160463762650   -0.55945118787232   -0.36399626107009
H          -2.02364919083380   -0.04245781553899    0.18883009924536
H          -3.52436775469120   -0.17955069269378   -0.19062343708197
O          -0.18239813509263    2.07447948639301   -1.62455742168882
H           0.57132015349231    1.75115468001467   -1.07582029900254
H          -0.84516145357561    2.27697225052697   -0.95285509802321
O           1.11449363185070   -1.46332309049070   -1.11420291909801
H           0.74685897101223   -1.70969711193131   -0.24652926049643
H           1.55907248393766   -0.62199047878292   -0.89287486127538
O           2.37127215736359   -0.82621342590443    3.03402896876588
H           1.53849966852933    0.68780429911606    2.78889253202697
H           2.17328927973234   -1.29157339550436    3.84966024344093
H           1.69949439787134   -1.11488515023268    2.38012811352070
N          -0.91192640508544   -0.34720289361372   -2.35753805107105
H          -1.73406771917508   -0.52707594207022   -1.73356873144780
H          -0.64248860066767    0.67820903863056   -2.22378432190060
H          -0.09369162931179   -0.91424369678595   -1.96454441102246
H          -1.10376859410241   -0.57667136495721   -3.32598992867726
