    23
        -45.36855719  Gyration_radius:  2.27412230247 Dipole_moment: 6.720
 S           0.56635383172953   -0.77359995076858    0.47451368189114
O          -0.12364829752460   -0.18319334745029   -0.67824461786818
O           2.07141333691194   -0.42532957647487    0.36740083396613
O           0.05042072895291   -0.21291371179918    1.71479835582509
O           0.43675317055906   -2.22819411266255    0.40851108566632
O           1.83802972824734    0.90414595348171   -2.27998004511226
H           2.64405237126591    0.58238452480933   -1.87058155870493
H           1.12034232524869    0.40551020509810   -1.85816797044136
O          -2.46208514754270   -0.16572571156502    1.03864977734934
H          -2.50896635158436    0.65783343984193    0.54526662760712
H          -1.56167294750029   -0.16116056691784    1.45353551446963
O           0.21681475078147    2.47272191753111   -0.47706820687266
H          -0.06558428283510    1.53924765974343   -0.53433105869785
H           0.77898664161091    2.59024831854536   -1.25287113035345
O           1.84877680098514    1.82873004480276    1.53108943295174
H           1.30249580521704    2.28642057149153    0.84750751616732
H           1.20866754458484    1.42018288850818    2.12901862919645
H           2.16531303350389    0.48002228004718    0.81961949363065
N          -1.93954431728227   -2.23211066991944   -0.49482359385687
H          -2.51188576769567   -3.06513203264216   -0.39662836011622
H          -2.29328142015236   -1.41125634448811    0.10179229454492
H          -0.91274643398282   -2.37812857420924   -0.12544190359450
H          -1.86900512350196   -1.93070322500517   -1.46356480765353
