    23
        -45.36855733  Gyration_radius:  2.27410304261 Dipole_moment: 6.723
 S           0.49065703818465   -0.90257058610444   -0.30176861454245
O           0.62319965127286   -1.52068243871170   -1.61985010280549
O           1.86968028939964   -0.97742904255105    0.39889936221335
O           0.14091044931616    0.51215125945962   -0.47417506738437
O          -0.49187436121572   -1.56767793838297    0.54152998579754
O           2.32614550414446    1.95883635007844    0.37745052669679
H           2.99006712685869    1.27846407864057    0.50810408921619
H           1.59742375176366    1.51884915045081   -0.08843065746058
O          -0.03299537291542    1.55335249502566    1.99444372598497
H          -0.12760817830995    1.21214976103895    1.08387246898820
H           0.72984144521633    2.14227385770969    1.94047719095234
O          -2.60789388321726   -0.41554023786416   -0.44105890930267
H          -1.91040556770803   -0.96430455895638    0.00099921677837
H          -2.61882497763328    0.41029683377672    0.05073030021047
O           0.91592989906094   -0.81982894888658    2.75494925810399
H           0.18651168910376   -1.38238671912025    2.46239146391186
H           1.66228097080736   -0.94158296816511    1.39312690746623
H           0.56364996725213    0.10129863106232    2.70354460597094
N          -1.28209316711112   -0.22915503831925   -2.69972784446217
H          -1.71491340116249   -0.58796997516589   -3.54538649047976
H          -0.42837384105824   -0.84027878779109   -2.36931183893177
H          -0.94121726981953    0.72143621839136   -2.82027274610890
H          -1.94009776220295   -0.25970139561905   -1.85053684083417
