    23
        -45.36276754  Gyration_radius:  2.43112048932 Dipole_moment: 2.093
 S           0.48464515696697   -0.98625993278514   -0.26011796057634
O           0.65250049590988    0.02305225193388   -1.32136453996251
O           1.37429961486653   -2.18662780218952   -0.69927284092202
O           0.96682404044730   -0.49092116742823    1.01619216862067
O          -0.89538618057306   -1.44656581325491   -0.18898154273659
O           2.04022047949671    1.79480712567880    0.31240618322832
H           2.15807886024112    1.49650881964091   -0.59594081527322
H           1.70783011643634    0.98838259673945    0.76814157405966
O          -0.04769837105854    3.33446446143053    0.11355945440609
H           0.76986418024024    2.78755847764426    0.31015948531310
H           0.26362660232256    4.18102067541118   -0.21210862399669
O          -2.79386039930094    0.27633623656615   -0.33293697233496
H          -3.46902119908710   -0.14120286420928   -0.87203963903877
H          -2.10092882814306   -0.42655170845028   -0.17194085827790
O          -1.11819867161952    1.73746300492672   -1.52809201058021
H          -1.90041603054177    1.25037981626945   -1.05740927014441
H          -0.76206125151888    2.45459915126014   -0.86850303148937
H          -0.35325902957085    0.99676261813977   -1.53121157522002
N           0.59725514395106   -3.25817681575132    1.55131488938412
H           1.24784795930619   -2.82156922403029    0.05200990764415
H           0.77595829073651   -3.95418348419581    2.26481585218119
H           0.79084761502209   -2.33597967086735    1.93138236290590
H          -0.38896858458150   -3.27329679247686    1.31993781282452
