    23
        -45.37854362  Gyration_radius:  2.29886710566 Dipole_moment: 4.232
 S           1.27246583821809    0.48596302432604   -0.10705873286856
O           0.21170673689339    1.32869421539520    0.43860559659197
O           1.68978386984783   -0.53307560551575    0.83900808241143
O           0.86366254113335   -0.08671155316355   -1.39140707810751
O           2.51522417833430    1.39805799455307   -0.37358097821191
O          -2.18717325604101    0.75723524880948   -0.39494663918943
H          -1.25170018708230    1.02041739439696   -0.20219496268250
H          -2.71101097814963    1.55171922064016   -0.28138553287205
O           0.23032645120548   -2.43024293740109   -0.40429126705115
H           0.36322493332691   -1.67798567072155   -1.02172963504687
H           0.96324113369860   -2.30114477392009    0.21516136314705
O          -0.14945096267591   -0.14142874130407    2.66292206679420
H          -0.26465838999322    0.74368588623898    2.28621631892440
H           0.68068133736316   -0.42580958741632    2.22140142381166
O           1.33450149802388    2.17380477098754   -2.62790423696400
H           1.80831617335579    2.01597635286475   -3.44762959805078
H           0.95931089570146    1.31011299641895   -2.35672653227232
H           2.24382149286070    1.94169204055907   -1.13855805147671
N          -1.74609706508691   -1.44699321256026    1.02756103497463
H          -1.19002133202444   -0.99393844912814    1.82009797238360
H          -2.47454453373474   -2.06564012231100    1.36554558434457
H          -2.13023863678579   -0.66160764470500    0.44956941577067
H          -1.03137173838246   -1.96278084705064    0.42132439563637
