    23
        -45.37871380  Gyration_radius:  2.3037457248 Dipole_moment: 4.210
 S          -0.10477755648412    0.61470240983739   -1.23051243319971
O           0.87918372699695   -0.31827445515014   -1.74104905772553
O          -1.22379556926423   -0.08981714218447   -0.59400220867228
O           0.46502656629554    1.59295587916034   -0.30734493407364
O          -0.68295261040483    1.39494496839151   -2.45621193749348
O          -1.20662706166916   -0.14780250822477    2.01682833320272
H          -2.10978710705576   -0.34059556140671    2.27443375416859
H          -1.23865049777246    0.02235027437829    1.04272746424251
O           2.41925526880760   -0.06718194531640    0.38020681142213
H           1.93155573308153    0.77009144855267    0.47552798047082
H           2.18467438631117   -0.30791982257965   -0.53793494144938
O          -0.30333103592599   -2.54389946705223   -0.71733213355380
H          -0.86977807231985   -1.73876221448103   -0.70374381375493
H           0.33967855094836   -2.32234087030535   -1.40319840636965
O          -1.47210251160104    3.28822412934045   -0.76674768441643
H          -1.11926321837339    4.16998630447837   -0.90549519804472
H          -1.18826744085634    2.12705120319865   -2.05075803185136
H          -0.75480629820707    2.76764139664950   -0.34684325190899
N           0.82369385499058   -1.79899733422354    1.54406823571460
H           0.41372695995749   -2.27546987547365    0.68206835315786
H           1.57383033808054   -1.12575862651774    1.18323445151921
H           0.05044408753893   -1.21127753332855    1.94406002237529
H           1.19306950692850   -2.45985064775596    2.21801861624901
