    23
        -45.37385868  Gyration_radius:  2.37242845284 Dipole_moment: 5.748
 S           1.34639596647798   -0.13263441979897    0.23504608335551
O           1.35706623462905   -0.05809256101756    1.69006156690604
O           0.30080580172797    0.99840161839674   -0.19207978434600
O           2.59114248729159    0.16027942736259   -0.41420206303873
O           0.73781388865545   -1.38709830640128   -0.22110425878298
O           0.80219332133369   -1.33044506127865   -2.85569351884157
H           0.75776021082765   -1.42945714068014   -1.87806475904763
H           1.55245434744453   -1.85844663941434   -3.13470339794273
O          -1.67579618217114   -1.88871414483735    0.58663241523809
H          -0.73481250406590   -1.81837544327467    0.27770024133433
H          -2.21312557154259   -1.76384351896336   -0.19764115923062
O          -1.60878005580102    2.29490738192544    1.24515590303139
H          -2.27204008172006    2.63442612687660    0.64212641327764
H          -0.84747030078643    2.02649178444566    0.69802641701956
O           1.36087655823324    1.26797317736720   -2.49071369798684
H           1.08492807001640    0.41129692582948   -2.88203611311129
H           0.59600924598178    1.22171380153484   -1.12955085581035
H           2.17569366521174    1.05971913271534   -2.00173103321410
N          -1.08783948311629   -0.08063652319118    2.43286676627747
H          -0.02283431880160   -0.06884454540118    2.20019084674937
H          -1.49616978592344   -0.81778798781135    1.80269212603951
H          -1.24149590683099   -0.29263741908316    3.41252082577125
H          -1.46277561708195    0.85180431469225    2.17450100633667
