    23
        -45.37601304  Gyration_radius:  2.48120590975 Dipole_moment: 3.732
 S          -0.97555791423389    0.70582686492690   -0.41971722921433
O          -1.17847450612856   -0.53205431031515    0.32688700795258
O          -2.13032192206238    1.66248906956843    0.04776500438587
O           0.28441465836762    1.33903594445966   -0.03278373715134
O          -1.08226561763596    0.53606754244747   -1.85603427397490
O          -0.34733015096786   -0.83979351914162    2.79441846395191
H          -0.76102698041227   -0.81454642663343    1.89764978312746
H          -0.88749503765734   -0.26818815578203    3.34245735225380
O           0.21607359696440   -1.85962001848882   -1.50403945684099
H           0.03791024505451   -1.15919851511099   -2.14323900943513
H          -0.38264823242823   -1.63101732964142   -0.76974164061241
O           2.47208540716841   -2.09574449325782   -0.16366071227646
H           1.70295562242389   -2.00442074588831   -0.78258718859482
H           2.42383731774200   -2.99315201176674    0.17116726651924
O          -1.97156095674206    2.96089237753875   -2.25359296857242
H          -1.51800536801663    2.09732254199958   -2.35905430120755
H          -2.74856868875563    2.92625190539513   -2.81620226660116
H          -2.16449703234063    2.35463372253299   -0.64373937189292
N           1.83210583999192   -0.07682987651559    1.45332575524059
H           1.14939546588017   -0.42012898050676    2.16734522762777
H           2.60243426525659    0.43405696820892    1.86940892074598
H           2.17568196359367   -0.88430989144277    0.86745954634364
H           1.25085800496509    0.56242733741828    0.80650781822997
