    23
        -45.37899821  Gyration_radius:  2.30316721789 Dipole_moment: 6.079
 S           0.76561938939337    0.11596736552413    1.17001031215591
O           1.53651747872200   -0.03067907485689   -0.07805863296418
O          -0.22147959213678   -0.94083510163793    1.29700730767632
O           1.77324999243802   -0.07868642221662    2.35198113799804
O           0.18991343286154    1.44593282905119    1.25682845545214
O          -2.71929469377537   -0.60949975266528    0.60544885624760
H          -3.23667417524937   -1.21438011601557    1.13930537891610
H          -1.80395965545474   -0.63556470126801    0.97802569231606
O          -0.12721443107760    1.51256407224252   -1.41276331491371
H           0.66518881776909    0.99340257712668   -1.16061667536326
H          -0.39041072235434    1.89145063584741   -0.55916450604461
O           0.39273851646404   -2.19298778419130   -1.04009043486201
H           1.00253913066495   -1.45212744488131   -0.81926581228219
H           0.08140669712764   -2.46344881400739   -0.16730574589003
O           2.77233178169542    2.13683090434868    1.29276490896238
H           1.80912955939313    2.27603422305870    1.29181295648960
H           2.38427337146398    0.67651532327089    2.24953692168353
H           2.96956504979121    1.71086407128858    0.45261189701849
N          -1.59446771156420   -0.63662224248155   -1.80052513738645
H          -1.09939808474256    0.30781954262750   -1.77087578611475
H          -2.08369256722753   -0.78452304965285   -2.67589205590184
H          -0.83020632228914   -1.36285793056103   -1.62866945183710
H          -2.23567524192628   -0.66516912994215   -0.97210629135358
