    23
        -45.37854364  Gyration_radius:  2.29886950004 Dipole_moment: 4.232
 S           1.23297215282858   -0.47599464536517    0.34633465423570
O           0.86201731553257   -1.00477746162569   -0.96795889153362
O           2.40451987098815   -1.35654499546312    0.89347844257536
O           1.72755681375245    0.88674158115378    0.26881064195425
O           0.11553599095666   -0.59352449903670    1.27941263852951
O          -2.23854269916546   -0.68765662782221    0.17247965901647
H          -2.81869621937143   -1.11566106730371    0.80397949246805
H          -1.32402077535598   -0.77524545054365    0.54326211212808
O          -0.12838839335300    2.05160492915482    1.70482839893730
H          -0.30916157377335    1.17966647899020    2.08655353726503
H           0.71885261892725    1.87929287686622    1.23863342922683
O           0.40635640642386    1.34393807754483   -2.03726659821813
H           0.48078119570702    0.37376172780316   -1.90330978652029
H           1.13005061185235    1.66953809476342   -1.48238795883807
O           1.16153227445362   -3.47075791907033   -0.13741261922456
H           2.09104903735490   -2.27138179116032    0.75484004123377
H           0.85149303845149   -2.66563098936969   -0.60198952157864
H           1.64226718613217   -3.98824702192307   -0.78734546588012
N          -1.63122079890902    1.82785001866700   -0.44447770733863
H          -1.10688398287272    2.07032089097846    0.45491017849850
H          -0.88298314028296    1.69707622838508   -1.19778123857237
H          -2.07412762247052    0.89147908097535   -0.28487246119097
H          -2.31095930780394    2.53415249340517   -0.70272098717643
