    23
        -45.37530168  Gyration_radius:  2.39433511279 Dipole_moment: 4.670
 S          -0.14531138819827    1.44111117519818    0.29990814112398
O          -0.08277515510181    2.45436709943750    1.48945334693838
O          -0.07505062147502    2.15224796365832   -0.95516923543787
O           0.99542258167781    0.52312458501769    0.45415830532062
O          -1.40943638486510    0.72268291009720    0.46051110128585
O          -0.89056797629828   -3.13028358950024   -0.10128823036316
H          -0.56793329565910   -2.57381657350400    0.65657960008999
H          -1.50148034675694   -3.76541295220705    0.27473305378753
O          -0.28026414388004   -1.38142657759864    1.77569242452197
H           0.40187486662120   -0.81563094292144    1.36258925731652
H          -1.05661304420676   -0.80626904629050    1.75897067048991
O           0.83997606454431    0.15539844205700   -2.35835205153535
H           0.55441157038176    1.03644489447696   -2.01557795443460
H           1.50161482115607   -0.13401737932661   -1.72191775457529
O           2.56851506241327    2.38725465890050    1.44594789179702
H           2.98708434594603    2.08310619039166    2.25450058617179
H           2.23237095941736    1.59051364682260    0.98864494347749
H           0.85566156856215    2.72693530995634    1.55054617446138
N          -1.40843284303339   -0.94947307882937   -1.54506461755819
H          -0.51027176322052   -0.62554186749830   -2.01805516728797
H          -1.26623337393490   -1.89845215233159   -1.11521215299144
H          -1.55274650247562   -0.25617066702441   -0.75008984301625
H          -2.18981500162702   -0.93669206897384   -2.19150850957183
