    23
        -45.37601291  Gyration_radius:  2.48119566891 Dipole_moment: 3.735
 S           0.94634009604492   -0.49957257232707   -0.69458763943755
O          -0.43385644925702   -0.55863708962790   -1.17394741527307
O           1.14396477112644    0.66851483946805    0.15828892450995
O           1.36179176473287   -1.74269826290382   -0.07378007376752
O           1.85631466171828   -0.25115930338573   -1.95047886343386
O          -0.13016766125614    2.92732244035302   -0.22777275547470
H           0.45196370129442    2.15444687437001   -0.02852861331475
H           0.21183745039276    3.30348712309651   -1.04040447923554
O           0.32808303044813   -0.73382915094887    2.26247920648305
H           0.73109454293408   -0.05383956380821    1.69233022379829
H           0.54496207302076   -1.55050765942296    1.79664849649992
O          -2.10899101747267    0.24894460687580    2.45216162715085
H          -2.02194855553434    0.89071176866101    3.15945717152885
H          -1.24591406626991   -0.23860358197221    2.43192620702275
O           2.00830458031249   -2.86449859885288   -2.34348589017804
H           1.69510069649182   -2.71204521441629   -1.42627609467517
H           1.94447863479476   -1.13480189349611   -2.36249746349266
H           2.88137240667254   -3.25605795680016   -2.26717591881164
N          -2.06629780006333    1.09493298613918   -0.07421600361561
H          -2.96226958383544    1.17818569767431   -0.54094904846986
H          -1.50686551670528    1.97718806115087   -0.12468312333067
H          -2.18094785536563    0.79934122190389    0.93214732730834
H          -1.44834989422127    0.35317522826762   -0.55665579177085
