    23
        -45.37601307  Gyration_radius:  2.48122004121 Dipole_moment: 3.731
 S          -0.96488158417056   -0.43336622724508    0.71171176136199
O          -0.02434288351912   -1.36568536168072    0.09174245017966
O          -1.07165404519715    0.78943472957147   -0.07840904648246
O          -2.38572920650488   -1.09860066977860    0.63462790814876
O          -0.65353439399325   -0.19180628907065    2.10738739401216
O           1.01304847640016    1.80410765404664    1.21930609398527
H           0.20815823544294    1.70127368563010    0.67941852867907
H           0.85492107711121    1.19082622328766    1.94716174562624
O          -0.86593169072438    0.79767275568303   -2.69214557109255
H          -1.64406922218727    0.35371185468628   -3.03307269105984
H          -1.02618984976073    0.90567961745991   -1.72331262865972
O           2.83469057012642    1.44072457048476   -0.64936143358084
H           2.90322527439726    2.31078888767753   -1.04694208071500
H           2.25360055141836    1.55981541622102    0.14504431018387
O          -1.93036060714241   -2.31352022371521    2.94201666808603
H          -2.39360652184692   -1.73664165191516    1.37708781699905
H          -1.28294584266604   -1.58211618762369    2.84981614170595
H          -2.50612446826944   -2.07175803603106    3.67105478852257
N           1.35914958025856   -0.42021212378962   -1.85775600288058
H           0.83858491531181   -0.87640967731045   -1.02965037759636
H           2.01563393463376    0.30080057641122   -1.45471765078046
H           1.85944218753875   -1.11669360554378   -2.39827304214885
H           0.60891552334355    0.05197408256719   -2.41273507249637
