    23
        -45.37530164  Gyration_radius:  2.39423651083 Dipole_moment: 4.672
 S          -0.76943568340213   -0.58970258582929    1.11750096404074
O          -0.74163917317966   -1.78794383372740    2.12203449497309
O          -0.40184271481133   -1.12535517324757   -0.20380007155674
O          -2.08791878288220   -0.00081243778549    1.09190211924914
O           0.24767189811194    0.34754425722529    1.59383936153727
O          -1.88317775888935    1.04171623018280   -1.28829510839402
H          -2.18806929724016    0.69721534275323   -0.41444300829564
H          -1.49173868994515    0.27191122902593   -1.71353437417279
O           2.41437508894330    1.67444837779626   -1.40227490391281
H           2.40215101472367    0.75924628528010   -1.01445237356750
H           3.29749867715307    2.01550416832187   -1.25451810785296
O           2.18682282946351   -0.59340984397300   -0.07602804433409
H           2.02849933558091   -0.27354722457852    0.82194349720647
H           1.30533610133403   -0.93139893095243   -0.33078420768553
O          -1.58711667922087   -3.43707564628291    0.22429818997513
H          -0.99653083359774   -4.16473119718074    0.01646689168411
H          -1.19953124529732   -2.52249152967292    1.66436260644942
H          -1.21131650963424   -2.64151831925372   -0.20324738830680
N           0.14061550114846    2.28672451897952   -0.15174106847244
H          -0.67996757950856    1.93054506950461   -0.73066874867425
H           1.03100143250957    2.21112783118304   -0.70579512533482
H          -0.02450601508606    3.23153283960536    0.17792363190155
H           0.20881910372688    1.60047058262861    0.65931075355066
