    23
        -45.37530160  Gyration_radius:  2.39429925761 Dipole_moment: 4.674
 S          -0.46107168427722    1.36449266725228    0.33807808285706
O           0.00338866553847    1.27547292877348   -1.04621993260316
O           0.15820374599772    0.31216723512254    1.16087081511662
O           0.06816040217696    2.73557128760458    0.87249487474557
O          -1.90133346043458    1.32199563663504    0.43633841527748
O           1.44618445230350   -2.30145745521118   -1.79198794762692
H           2.07282357791576   -2.43723873105863   -2.50393866286032
H           1.83473736126026   -1.59408639968428   -1.21175236721198
O          -2.10164167175001   -1.27602877607739    0.49841436101373
H          -2.24977697451387   -0.30062003026646    0.54253590805723
H          -1.38918935791695   -1.42765350736778    1.12775559702791
O           2.21931784860876   -0.18499483308444   -0.42185572727614
H           1.89924254359862    0.53268985353994   -0.98417461098590
H           1.59669863323376   -0.14763257539458    0.33115941389726
O           0.13467897630680    1.78060509607231    3.34616417284488
H           0.12463547805294    1.02555022842074    2.72425216879548
H           0.99876995057969    1.77982661864397    3.76430672299929
H           0.01053555383593    2.67492540131364    1.84805519315593
N          -0.90368669280735   -1.04235624938547   -1.83564518016237
H          -1.49024585170526   -1.08103856963214   -2.66210826136366
H          -0.56286418545832   -0.05108035580422   -1.64929568202785
H          -1.45220553196091   -1.30185472261146   -0.95979763228844
H          -0.05536177858824   -1.65725476779478   -1.92364973137713
