    23
        -45.37530169  Gyration_radius:  2.39430842333 Dipole_moment: 4.668
 S           1.29000781263045   -0.71946634135052    0.07713164804181
O           0.33550664112536   -0.31403424701080    1.12228563299093
O           2.34020199457592    0.25992672466643   -0.07703402795623
O           1.90099699487277   -2.08909895148498    0.52026353216104
O           0.59272215408013   -0.98777018372528   -1.18055741141715
O           0.82582352192426    2.35209327418517    0.27476403675620
H           0.34118819604718    2.01229419551302    1.03387010246111
H           1.57289327715520    1.71495539169371    0.16904847728100
O          -2.93154929860722    0.74665638044455   -1.20476041685192
H          -3.63199423436552    0.42166797248283   -1.77202469543570
H          -2.63532884407738   -0.02890868759954   -0.65808790841536
O          -1.83878716431781   -1.32639671845571    0.00459031699265
H          -1.26243271952388   -1.66982357119703   -0.69085778391535
H          -1.19574434734976   -0.92954687373246    0.62512405782385
O           1.77472579254742   -1.35496207572772    3.06609518746673
H           2.11667615019977   -1.98353871944118    1.46944627770601
H           1.15994100948060   -0.79366692206560    2.55236007748566
H           1.23211097082854   -1.91095683303218    3.62991525813051
N          -0.40591797753753    1.33835454921212   -1.82110502308409
H          -0.17888972800556    1.73431195112450   -2.72678454601199
H           0.02316682724695    0.37114208282618   -1.70324753068879
H           0.01816902156592    1.91334876274957   -1.03062698549432
H          -1.44348605048810    1.24341883992239   -1.67980827603716
