    23
        -45.37883193  Gyration_radius:  2.29223974239 Dipole_moment: 2.047
 S           0.72242406408125   -1.16062787911028    0.07147325610965
O           0.86991828744601   -1.28027938015734    1.50871688519315
O          -0.62012746681775   -1.52436016585954   -0.37978876220986
O           1.08194771389470    0.17871422761204   -0.38977396070667
O           1.72512640597030   -2.16301909083489   -0.59135676352502
O          -2.21484400477406    0.46888655713186    0.36799719769983
H          -1.93970498932453    1.04588468125350   -0.37519917428991
H          -1.83442788645295   -0.39849310848113    0.11964841091955
O          -0.85651902811963    1.42854526240527   -1.74205963744443
H          -0.93974429657191    0.96709085906707   -2.57864883717419
H          -0.06846164518380    1.04303161475105   -1.30916621404867
O           1.47424632094623    2.19668817869789    1.27954778492520
H           2.37229944885443    2.12451154181091    1.60690876657456
H           1.39953092442053    1.53612261836650    0.55419089863716
O           0.25058032331550   -1.84287258185078   -2.81087374418059
H           1.49505038837846   -2.11094180338226   -1.53749311375816
H          -0.08973000374725   -2.64304719870483   -3.21706764930190
H          -0.28941320989569   -1.68888071203258   -2.00584404273292
N          -0.52139403922772    0.77970314122558    2.32198147234216
H          -1.31171344359524    0.76785711524615    1.58751991565349
H           0.16099274446422    1.53819066444236    2.08296640354280
H          -0.87770435454574    0.86026861347232    3.26797619333261
H           0.01166775648324   -0.12297315506818    2.16834471444551
