    23
        -45.37883194  Gyration_radius:  2.29217114002 Dipole_moment: 2.045
 S           1.24815493889069   -0.51586101915488    0.22579468165401
O           0.19646983991154   -0.08497482090665    1.14455780198905
O           2.06659282463370    0.60233148438647   -0.20021672998350
O           2.17202891232530   -1.50517276491943    1.01139713039143
O           0.68338816794898   -1.25118028490921   -0.90502390639436
O          -2.27785855103250   -0.70576656344431    0.34454778127359
H          -2.35364466469241   -1.65863747144019    0.42195616826043
H          -1.41768125111856   -0.47872154398037    0.75153018764475
O          -1.22752841765083    0.29946241403462   -1.91468732309915
H          -1.87337576830776    0.05700100599302   -1.21824692033160
H          -0.50832370281825   -0.35059893820286   -1.77744823654898
O          -0.37661389048994    2.46866716387147    1.54848460892675
H          -0.24558464115347    1.49377272143526    1.52740323770610
H           0.24936888485992    2.80248810656782    2.19311653578719
O           0.21859576419922   -3.30458479171340    0.62404594892727
H           1.59075541058865   -2.27238220806764    1.16717701500150
H           0.21733172845029   -2.62712012119959   -0.08622964828786
H           0.47553233084397   -4.13146754299511    0.21008740117480
N           0.23125140151814    2.26891194812045   -1.03374495312510
H           0.43649270983294    3.04111659566384   -1.65818590815394
H           1.09227721104871    1.69411952349308   -0.80814181824008
H          -0.12918314173375    2.58867524598050   -0.10320612745100
H          -0.46844608605698    1.56992187138310   -1.46496691712177
