    23
        -45.37796983  Gyration_radius:  2.33873550198 Dipole_moment: 4.749
 S          -0.33065273732984   -0.00480862616647    1.24884795977576
O          -0.66167545605584   -0.07925165656196    2.77543567664063
O          -1.47124561629235    0.60759418901586    0.57223153305849
O           0.87805214341580    0.80339383627604    1.08867057729828
O          -0.10722614750774   -1.37312142086016    0.81281961516130
O           0.09292027733770    1.75539614715138   -1.23806079133315
H          -0.77073874542826    1.45970494384162   -0.89808824859227
H           0.62477136819452    1.74828186636753   -0.41870973374679
O          -0.84299495439793   -2.07143982817980   -1.58997705977775
H          -0.94514274027993   -3.02419755161430   -1.56704924187750
H          -0.70632362527290   -1.79248028816968   -0.65012560223344
O           2.46296974078543   -0.95324799445884   -0.01288442028724
H           1.95609954951977   -1.69597736758117    0.33739165930799
H           2.06994246898165   -0.19021136524142    0.47417077993824
O          -2.00833851819023    2.19715378646242    2.57675752513646
H          -2.93785387244476    2.15924103279029    2.81251475435584
H          -1.05291779454691    0.79315700501192    2.97962911211322
H          -1.93148380854334    1.79265935220790    1.68642693125098
N           1.15094344548777   -0.43163977549760   -2.23548034617219
H           1.81803504601892   -0.67100575846587   -1.43560845811500
H           1.61534559879363   -0.40711352892348   -3.13607324637032
H           0.37666961725698   -1.13648043404531   -2.20379869640682
H           0.72084477049908    0.51439344663957   -1.97904027913263
