    23
        -45.36276739  Gyration_radius:  2.43108019261 Dipole_moment: 2.091
 S           0.18120561065788    0.59083196434647    0.94513426001451
O           0.53323575956656    1.34792084483750   -0.26968980280014
O           1.13545143518725   -0.48234489886245    1.18819418256958
O           0.29875388887145    1.61752884923407    2.11011296311314
O          -1.18660416578594    0.10859115657463    0.88504217255343
O           1.90727652635888   -1.93311407607502   -0.78466737198619
H           2.84379131685649   -2.07940146204957   -0.63515518877184
H           1.57003649168031   -1.46933881620845    0.03471870363681
O          -1.05681305033149   -0.28927704752127   -3.15200246802910
H          -1.54593261448745    0.23727316433925   -2.45219124585242
H          -1.27286000059041    0.11313089597580   -3.99522754462597
O          -2.04489338125347    1.25828398043342   -1.30873937139926
H          -1.37701266365733    1.94965132112791   -1.24631743011192
H          -1.91980071656956    0.75432117781743   -0.47272290759722
O           1.27490524316408    0.03617409130853   -2.23122661396501
H           0.36143587229854   -0.15513866236228   -2.68446106857721
H           1.02107086419801    0.66228096615904   -1.40854706431064
H           1.57391966463915   -0.83765331382011   -1.76445536320760
N          -0.50728964739833   -0.36650044760187    3.60406996362240
H          -0.92708460609212   -0.64925130776528    4.48115081486413
H           0.02992178014901    1.07139952336060    2.89310777405629
H           0.28287875224079   -0.97027998617737    3.41062199460886
H          -1.17559235972939   -0.51508791709709    2.85325062222214
