    23
        -45.37432783  Gyration_radius:  2.32575919832 Dipole_moment: 1.833
 S          -0.79822723716676   -0.08400956108482    0.86482287239058
O          -0.42797774656592   -1.27363740575569    0.09485637961832
O          -1.75550132136844   -0.53774872481270    2.01083201167166
O           0.39011119719005    0.50746425840939    1.48822144001434
O          -1.52092288390636    0.86752434798321    0.05067616501054
O           1.01573144902204    1.96916294173301   -0.62644158496752
H           0.90688431370257    1.51063184337297    0.23462650640683
H           0.21346174610949    2.49041523006659   -0.72240585078010
O          -2.00964332675841    0.69809689769396   -2.55389014126948
H          -1.93631503730684    0.84696999768973   -1.58417643165245
H          -2.82351158294806    0.20857419574342   -2.68144433446152
O           2.31812877661404   -1.11982963053090   -0.14339616099386
H           2.55342126867779   -0.43046144222667    0.48057105826731
H           1.43277055902887   -1.41066458603113    0.11895844206233
O           0.33851458450853   -1.18459617279968    3.49031405200017
H           0.42491416704882   -0.75236825577293    4.34288534860428
H          -1.17333903719865   -0.98736880271075    2.65781743148338
H           0.62935919649029   -0.53644217704153    2.81667490932372
N           0.46080890417583   -0.16720275707669   -2.10787784012429
H          -0.39324611834783    0.10069926608079   -2.63960214567208
H           1.16914867298362   -0.65356098963055   -2.64829226475725
H           0.85358158343567    0.70322598588254   -1.64902597292004
H           0.13184786255705   -0.76487446916063   -1.29470387932339
