    23
        -45.37796989  Gyration_radius:  2.33874551588 Dipole_moment: 4.753
 S          -1.10344564572856   -0.10982094115312   -0.66285612397400
O          -2.47416211660820   -0.29864913849319   -1.39157447699598
O          -0.43879967504408    1.05000739182286   -1.25157075490142
O          -1.41333954762214    0.09322694960434    0.74248470600162
O          -0.31748731508687   -1.32802424622608   -0.85850947525461
O           1.96382514094007   -0.01312143238592   -0.87538253280191
H           1.36412966470850    0.72920327731035   -1.07039034878170
H           1.37842832663511   -0.77417716611847   -1.05586870786144
O           0.07927972446911    1.70740550292925    2.14587178113367
H          -0.53017868626124    1.21442578384637    1.54136803713615
H          -0.45702070631912    1.97803900980530    2.89276265503097
O          -0.01816161223000   -2.08486853475009    1.62134197993158
H          -0.79387117657485   -1.58996301599312    1.91221125336380
H          -0.09896750500804   -2.03195249435025    0.63925442529969
O          -1.37745807551075    0.57225238117558   -3.64383694852130
H          -2.26275557195888   -0.17342031442436   -2.33792928156644
H          -1.77089147321690    1.35917810948108   -4.02730398384310
H          -0.83384674716822    0.87554189060653   -2.88571912244445
N           1.85214533343011   -0.23499765438094    1.73907297736140
H           1.31026008925305    0.60536286952701    2.05128017649905
H           1.18916525969738   -1.07053593447003    1.80480895132180
H           2.05129158382521   -0.10644659784768    0.69527256705016
H           2.70186075138168   -0.36866568551054    2.27521225681572
