    23
        -45.37432789  Gyration_radius:  2.32615471339 Dipole_moment: 1.833
 S           0.89656760652944   -0.53692320059837    0.54533081845599
O          -0.30275311261847   -0.92124311861972    1.29677578582243
O           2.05732848454529   -1.47704915024254    0.99721045198434
O           0.68510406725486   -0.74569560903538   -0.88877696980455
O           1.30707708405372    0.82081239906368    0.82572480821736
O          -2.04293508044754   -1.07825855296355   -1.14730506256817
H          -1.09175720097181   -1.25824002169508   -1.13252231629733
H          -2.33667918226382   -1.19472414026338   -0.24165880754796
O           1.50363734366817    2.82173927841855   -0.90900402369496
H           1.51877306538002    2.15272396483875   -0.18784210999006
H           2.37753309184262    2.80106317536007   -1.30173910713464
O          -1.46211543605019    1.44276944321413    1.03804231648543
H          -0.79918467130779    2.00752492623102    1.44566911906822
H          -1.15979557933648    0.53017748540044    1.23636809937528
O           0.33434906014413   -3.46388100970918    1.27110240256187
H           1.65999588960592   -2.37237606232264    1.01594582685753
H           0.26752910798566   -3.87083658961660    2.13773696098461
H          -0.16212285368189   -2.62131573735346    1.31819068982894
N          -0.66869582535036    1.41325308173717   -1.49887556615240
H           0.04300212531531    2.17099021614764   -1.55652473097804
H          -1.17162420397626    1.49932158152593   -0.57036636815614
H          -1.32338676610864    1.37801570958039   -2.27375375183400
H          -0.12984701426333    0.50215194092904   -1.41972848550848
