    23
        -45.37432780  Gyration_radius:  2.32673332278 Dipole_moment: 1.851
 S           0.32339545654883   -0.72090343408948   -0.87501620864034
O           0.82521438132608   -0.95297907329449    0.48123007910596
O           0.68405241598987    0.62716423954121   -1.32616632838935
O           1.02815335350602   -1.73942986435781   -1.82438236103128
O          -1.09922171097026   -0.96478804176561   -0.95991739120460
O          -2.74541519876397   -1.56302361120905    1.03637014219750
H          -2.75487234200591   -2.51426213701741    1.15178254249170
H          -2.23010676877415   -1.39841731324528    0.21470117378489
O          -1.44532311268422    1.77055391171861   -0.25102975547604
H          -2.14702333323325    1.28674831111416   -0.69612052857894
H          -0.62632466471748    1.49640945433546   -0.71761130349203
O           1.49439683595522    1.55646492490969    1.41525861007712
H           1.46810151286205    2.10000420652898    0.62544198408705
H           1.56307708717881    0.64498116901836    1.09620227243240
O           3.09813630703649   -0.10812781804718   -2.03420064160943
H           2.32167498492156    0.41937252750818   -1.75572462161961
H           1.94012269589851   -1.39590231376633   -1.92591406802644
H           3.33095493232284    0.19064348657004   -2.91606661235400
N          -1.01706751338758    0.26124584005315    1.89462481716873
H          -1.82345904827137   -0.39671426082684    1.91360132931597
H          -0.20284222713397   -0.27425483045471    1.47390381047308
H          -1.22387077582101    1.01996109243281    1.18447265874754
H          -0.76175325784504    0.65525353435102    2.79456041050961
