    26
        -50.47096518  Gyration_radius:  2.40575368933 Dipole_moment: 5.277
 S           1.02843755174896    0.80604810938155   -0.50320377402914
O           1.37435615678556    2.17034617806563   -1.14226892289732
O           0.05251142168409    1.05150596954861    0.56207359376397
O           0.44768390163610   -0.05150895638654   -1.54034572045758
O           2.25208228989595    0.23284237186401    0.02818428765311
O          -1.98349351653110   -0.44978516762597    0.87432942900397
H          -2.53273738907194   -0.01371810781067    1.52814226799140
H          -1.22528400898022    0.18294578163449    0.69360094971991
O           1.52189904034425   -0.19276974635810    2.48518228536173
H           0.91761294454591    0.55769768026668    2.51660784753793
H           1.99433106562818   -0.04319013177903    1.62815179510519
O           1.42674684223020   -2.29848216454611   -0.69512305977993
H           2.27573295861149   -1.91203812671675   -0.44889065543751
H           0.99439009273475   -1.56014078938055   -1.18895571325719
O          -2.08721224690306    0.57851597437086   -1.83884969236048
H          -2.45225042379517    0.19472873497581   -1.03356263745969
H          -1.16459309439349    0.24488796665323   -1.87069757862610
O          -1.01256991910472    2.99878697481465   -1.77062171811893
H           0.48606956663611    2.56712083526994   -1.35094173898917
H          -1.01014459932860    3.29206846381026   -2.68453621000232
H          -1.53411989414116    2.15717770558799   -1.75799982397285
N           0.02958654047812   -2.13060564412833    1.51950377043733
H          -0.87277618079277   -1.65745430607624    1.28549977158570
H          -0.11629594528958   -2.97979866022572    2.05415275510882
H           0.55632237491783   -2.32652753602452    0.60577352822478
H           0.63371448044807   -1.41865341919533    2.04479496390219
