    26
        -50.46432135  Gyration_radius:  2.38758462086 Dipole_moment: 5.090
 S           0.81720270499580    1.19961862214308   -0.04911549643698
O           0.74372250782088    2.02191554638749    1.23349683448898
O          -0.44621338062812    1.33467016328526   -0.78905685830627
O           1.93731360713773    1.66258267513189   -0.84677334455166
O           0.99849439292755   -0.21657776934770    0.33079338929179
O           0.44490515131927   -1.19058398053692    2.75056800885827
H           1.17117224146718   -1.11660665146385    3.37085761484537
H           0.78197474286002   -0.86465482994445    1.89059939221737
O           1.07736302445148   -1.69054645954630   -1.91646083399293
H           0.26635175278102   -2.17766506030672   -1.72683569427916
H           1.29205488079512   -1.24200554079180   -1.07310201286585
O          -2.59204575613691    0.34416282574600    0.48564784691635
H          -1.96946821991778    0.84166360998528   -0.07522704434779
H          -2.37131170054943   -0.58702497342583    0.32064978818324
O          -1.06057732071334   -1.93777940711719    0.10023285877618
H          -0.35829011482586   -1.26255881734608    0.18551214844635
H          -1.03369887201902   -2.42936801869024    0.92474240865024
O          -1.13110896082440    1.02495796732246    2.58356591487026
H          -1.82919285168360    0.81338994628164    1.91274768545586
H          -0.73074856341479    0.17098737471644    2.83765270499943
H          -0.04810222826208    1.68313185574246    1.81655703658067
N           0.80666043031968    0.72246442217930   -2.92264442441877
H           0.78503424371476    1.03041909415777   -3.88872857294808
H          -0.02800529792130    1.00494659722841   -2.34161304978210
H           0.92222072721216   -0.32191866659377   -2.79548181168677
H           1.55429285908784    1.18237945480590   -2.31858448896488
