    26
        -50.46722945  Gyration_radius:  2.51287169107 Dipole_moment: 5.593
 S           0.10750725551220   -0.06370688765804   -0.86312686358717
O           1.41184578492418   -0.45330541742110   -0.08334706804135
O          -0.84005409470966    0.39672122371401    0.16294275886488
O           0.50681736906598    1.04238211127922   -1.72250843324704
O          -0.36667266655595   -1.22665177103988   -1.56918955957999
O          -2.16656803082700    2.67463131045507    0.17773976116706
H          -1.80901087834352    1.76005821574776    0.11394377213877
H          -2.82673441606592    2.65872235235691    0.87197349000320
O          -1.68261158701916   -2.02901016275075    0.81860910060128
H          -1.87864454313099   -2.41448852379718   -0.04002850840014
H          -1.47867095622408   -1.09176760869903    0.62893247564416
O           0.77815062386872   -3.62292196152045   -1.51916035114955
H           1.50238041431584   -3.62087578500292   -2.14631721366809
H           0.29606255210181   -2.78047157262871   -1.65827718532284
O           1.25606053587800    1.48671701718022    1.77504697819121
H           1.51757007935505    0.77566424331917    1.15758515347326
H           0.43737900735213    1.17218771916375    2.16992805000227
O           0.89762358583654   -2.66652005014358    0.98471479641668
H          -0.07197959934260   -2.56180225954954    1.12993689465849
H           0.96985476069216   -3.25170894008142    0.20211353670487
H           1.25242019571655   -1.36947817805029    0.38135922732661
N           0.44911724710516    3.08176103612410   -0.19213661862584
H          -0.56524892164337    3.25027664861045   -0.03986793077721
H           0.94356526246964    3.91718467853448   -0.48410547566443
H           0.85267888352936    2.64765804389630    0.67850622410972
H           0.50716214612752    2.28874452797734   -0.93526700126212
