    26
        -50.46432136  Gyration_radius:  2.38758972156 Dipole_moment: 5.089
 S          -0.85042060312145    1.17189225361107   -0.11332300273631
O          -1.48726261439778    1.31302557414999   -1.49214893395589
O          -1.52350634222570    2.06168301063423    0.81427311768859
O          -1.00025965481134   -0.23482561552252    0.31273099896671
O           0.58215094028172    1.49107215137186   -0.20191439753784
O          -1.50801276884301   -2.24956861207204   -1.35870834042750
H          -2.44156709741834   -2.38670564689226   -1.52421216920215
H          -1.44798359253827   -1.53655842413359   -0.68983627996452
O           0.16362498761323   -0.51690872141075    2.71984692363120
H          -0.47355077094700   -0.47763367419681    1.97752868404233
H           0.85044352484296   -1.12057306955786    2.41187923447523
O           1.13642624702901   -1.87495656178489    0.28875883067284
H           0.39305443813508   -1.24053091315821    0.25266114255556
H           0.79536412099695   -2.67988080526113   -0.10870259078837
O           2.00258923355431   -0.19075385771214   -1.73960082526885
H           2.00700778899549   -0.91755980105432   -1.09553546672398
H           1.65151281422923    0.56962618327940   -1.24135429549659
O          -0.33847276800995   -0.37960971706155   -2.95732356387597
H          -0.69558480960988   -1.20814302623558   -2.58297690744938
H          -1.01876103606448    0.66522743690175   -2.15743324891463
H           0.61175322156792   -0.33847626491117   -2.67900683360090
N           0.55171744075640    2.04610888996784    2.28556782615096
H           0.97795176396700    2.75293879891707    2.87492772285175
H           0.52791716617493    1.07589517007001    2.70793138656260
H          -0.44349208963486    2.26040033517473    1.97095573289843
H           0.97736041948307    1.94481490688892    1.32501524543991
