    26
        -50.47166904  Gyration_radius:  2.41852586561 Dipole_moment: 3.985
 S          -0.14155061269280    0.45719860618377   -0.79584622827059
O           0.93516654347720    0.14208779208957   -1.88031759426327
O          -1.44088553997934    0.55925558123426   -1.41350412527499
O          -0.07835911330981   -0.64470456691769    0.17249503007805
O           0.30842318612100    1.71114480970184   -0.19013028899731
O          -1.95551912915769   -2.02659176871968   -1.36730389657407
H          -1.99567187818729   -1.04852469297238   -1.40748952771285
H          -1.48297476118119   -2.20789807125721   -0.54862433722461
O           2.53712675323150   -0.77218318000796    0.46700221017120
H           1.57315413620203   -0.91590995738734    0.34697733762043
H           2.86133801568032   -0.54073510168974   -0.40664305510906
O          -0.60026824421341    0.04589438277563    2.71623716837072
H          -1.27343273265598    0.70998247879071    2.47419881812466
H          -0.50337054114090   -0.47873810605831    1.89899154740103
O          -2.02269989760990    1.76716676174961    1.16819999690939
H          -2.66358010146390    1.43121286207117    0.53694664276891
H          -1.23201124671336    1.95599854422244    0.63728177181546
O          -0.07037154026119   -1.83937503291936   -3.19725574156023
H          -0.50488227726229   -1.50586221197375   -3.98538487038956
H           0.61022161817441   -0.63250764954740   -2.42735878423422
H          -0.79778141959135   -2.09075906774917   -2.57080420843310
N           1.62023354315619    1.20743167017039    1.98858205252136
H           2.23986107456104    0.44543590772976    1.62965368023540
H           0.80001919787667    0.76337879565327    2.51720109332816
H           2.11537370740120    1.90989432212237    2.52576011538274
H           1.16244124951740    1.59770690279082    1.11113519311130
