    26
        -50.45057505  Gyration_radius:  2.48855846713 Dipole_moment: 7.620
 S          -0.65114163306679    0.03169566006854   -0.81376853145391
O           0.58345607476542   -0.70700556623453   -0.96472114944233
O          -1.78585903641142   -0.58865109342674   -1.52210712079231
O          -1.09912235025361    0.04417859160861    0.65711884268500
O          -0.53376576782932    1.44392775635931   -1.21082867676193
O           2.49865986869490    1.63771292062935    1.57363967929041
H           3.41111472429507    1.39009164762040    1.73303320751233
H           2.39885624975013    1.70274666392467    0.59501588108430
O           2.15385572338900    1.54576094637298   -1.07552176785218
H           1.22371050480664    1.80281350721108   -1.19263327226045
H           2.13598608742672    0.59373805091974   -1.23147871338199
O          -0.70905613549964   -3.07544236413243   -0.29733797748889
H          -1.64006620883806   -3.03756370058443   -0.52106482638007
H          -0.31872471393208   -2.29462927059293   -0.71124854087744
O           1.73668275685117   -2.25448620963303    1.00014362778238
H           1.57634857246977   -1.74601418330903    0.18968253159279
H           1.08251193800605   -2.96179966566385    0.96506375609287
O           0.71681084550094   -0.19306411485726    2.32483446008534
H           1.16024118603170   -1.01838715393540    2.00879756062468
H           1.35200408596905    0.54095739502412    2.14381948926248
H          -0.32584994215188   -0.04430728072453    1.39740572350627
N          -3.05918006452647    1.47717308879538   -1.00375652638867
H          -3.70177492340622    1.92425811548720   -1.64942065718529
H          -2.05931456210082    1.85027193337405   -1.05977084985229
H          -3.39773241401033    1.50012321906471   -0.04636967361534
H          -2.74865086598063    0.43590111657056   -1.28852645573767
