    26
        -50.47066090  Gyration_radius:  2.50126020528 Dipole_moment: 4.643
 S          -0.11653339169120    0.44432578048062   -0.98701390033270
O          -0.19165022626361    1.08944684575434   -2.38511349313205
O          -1.40616332373933    0.67760485307070   -0.35477660565991
O           0.17106537639099   -0.97789763291036   -1.13602731054036
O           0.95474860698648    1.10861792766541   -0.22698483130746
O          -2.86305147878153   -1.13927084839693    1.00670027100889
H          -3.17790632783630   -0.55898501896657    1.70397002272309
H          -2.47731158589171   -0.54946835706178    0.33225576834490
O          -1.79859595709987    1.65329731535144    2.05680060180181
H          -1.73370292346697    1.36330476287973    1.11563511917375
H          -1.86979628302360    2.60846805616325    2.03284944986313
O          -0.35587579728145   -2.04913720479484    1.24008431567876
H          -1.33373689723751   -1.96691096093567    1.26275189248362
H          -0.12642032307694   -1.85328984524779    0.30698097425028
O           2.78625777122266   -0.59134282111275   -1.24189450835071
H           2.60368803605737    0.23333144882791   -0.76988664266575
H           1.93533198890643   -1.06477385891397   -1.18261593358028
O           1.93964187500842    0.24774962071662   -3.59704907069503
H           2.45700749496200   -0.06537776901188   -2.81307484853237
H           1.69962007108537   -0.53784942820178   -4.09342002405795
H           0.62996843212371    0.83095968807290   -2.89175156076070
N           0.47428784948267    0.22366044019728    2.16214755725485
H           0.16298497038307   -0.78694493314307    1.91416861821016
H           0.80214368560051    0.64272265692687    1.23779375674009
H          -0.36458495912605    0.77534247909109    2.43597521241001
H           1.19858332629769    0.24241678349504    2.87149518967339
