    26
        -50.46798294  Gyration_radius:  2.54890616227 Dipole_moment: 6.426
 S          -0.04834246909809   -0.99617680267118   -0.48437679764278
O          -0.37114833466641   -2.27903765698892   -1.04550491875869
O           1.22364454365465   -0.97963119901591    0.23502059571224
O           0.14674619237942    0.03852933331990   -1.65317253042186
O          -1.11997803453381   -0.44582796297347    0.35609266974760
O          -2.44628242733651   -2.62049563613330   -2.63177589201406
H          -2.10119997118327   -3.01010811140209   -3.43670220079958
H          -1.70370080122716   -2.63504757743473   -1.98717805786426
O           3.04036758615696    0.88467213717625    0.34599153391831
H           2.37235239159044    0.18263432395577    0.14721510514051
H           3.86977893711014    0.42043196407838    0.46981444584121
O           0.37428865160478   -0.55951617739807    2.67436702110132
H          -0.56065527946231   -0.56316432266043    2.43534173918834
H           0.80336455750268   -0.89596341950201    1.85448270772594
O          -0.55870818866135    2.08814537752233    0.24544930139213
H          -0.19092259431934    2.13805631174947   -0.64179936231519
H          -0.87940342859090    1.15344429986962    0.32762922480092
O          -2.38744455362063   -0.01820201978630   -2.03987056855951
H          -2.44875271646017   -0.12026520078938   -1.07987725017758
H          -0.78573730116836    0.09541836339683   -2.00477416688467
H          -2.58907967501514   -0.90880251532723   -2.40223379376818
N           1.28629420782626    1.83622594949439    2.09348470855016
H           1.46511483818248    2.55559615664274    2.78423530395247
H           0.93579905746249    0.92456503128330    2.52194178739404
H           0.53713034307950    2.11816978258009    1.39142655790211
H           2.13647446886587    1.59634957101312    1.52477285684353
