    26
        -50.46529175  Gyration_radius:  2.49768049739 Dipole_moment: 4.491
 S          -0.87270863876310   -1.26547001062319    0.52061557579969
O          -1.51487583013164   -2.36013845338831    1.18726248802954
O           0.53966781590644   -1.75421491422397   -0.02805498919661
O          -1.55163230042217   -0.76912159362243   -0.66953790503847
O          -0.54985135525564   -0.15308925497330    1.42348774757050
O           2.36912600920203    0.16484103743749   -1.02881464038075
H           2.43566220205690    0.42995978725149   -0.08366953750679
H           2.07362196232649   -0.75333939868613   -0.99625585365237
O           1.93265725537773    0.78128051163864    1.53635499329336
H           1.04530019864800    0.36448418345052    1.56040967714308
H           1.78205065946886    1.71215956034081    1.71516591387847
O          -0.70982752420146    2.41919170288876    0.82372260917903
H          -0.71940406426647    1.48529772062902    1.13764083308940
H          -1.58597800779502    2.76526789469324    0.99766813926266
O          -2.10913758568575    0.44433336619979   -3.14601059748946
H          -2.71247551308158    0.04404432975346   -3.77326346700783
H          -2.14116511893149   -0.10597634074657   -2.34998180384432
O           0.79830974710222   -2.60070098535833    2.43152896356251
H           0.86735002566995   -1.82766754638065    2.99756629733134
H          -0.15242881238002   -2.72033856016348    2.24237912755643
H           0.91532092576180   -2.17631114107036    0.77416552272033
N          -0.01280540231738    1.20128469513440   -1.47559931107638
H          -0.33447096404224    1.45943840850173   -2.40763535379979
H          -0.19787006637702    1.94441136520497   -0.77363196768296
H          -0.59860099863816    0.37228488518694   -1.17033519944684
H           1.00416538073940    0.89808876136909   -1.44517723262303
