    26
        -50.46529161  Gyration_radius:  2.49768563073 Dipole_moment: 4.490
 S           1.41382308097336   -0.71536142717748    0.35130330207853
O           0.63779839563701   -0.72687074211015    1.58477268575701
O           2.69276895635813   -1.35939890725630    0.41968483330562
O           0.59260913607725   -1.18691504653672   -0.77117914145394
O           1.63313472261561    0.83433571679843    0.05928013230422
O          -0.42239612651940    0.56192239967725   -2.49174325047911
H           0.03841748489452   -0.07986728341540   -1.91081186721991
H          -1.25057627156896    0.14006068058965   -2.73101233938918
O          -1.20539065018306   -0.10095597856309    3.61652991229760
H          -0.96762145447258   -0.16323960579643    4.54240911986584
H          -0.44691972873741   -0.43884387349400    3.11845301426721
O          -2.02793542476061   -1.54902204270729   -0.72040611826121
H          -1.04444365163268   -1.52475243627948   -0.77533243840662
H          -2.25379784341180   -2.42838015738458   -0.41466007256757
O          -0.60250457233025    2.44548268418815   -0.60168397511713
H           0.30242686920493    2.38873051776151   -0.27106122812585
H          -0.58609074398921    1.92768704763558   -1.43813050329738
O           3.13831767986210   -0.10815866670162   -1.85888789528279
H           2.24529394808983    0.79502829977024   -0.70661812614385
H           3.25736495182911   -0.74981298663226   -1.13225887770742
H           2.55959568709369   -0.52834905969733   -2.50019426867401
N          -1.57278400234289    0.53143638538763    0.92893542710234
H          -1.33799581189562    1.40546534123406    0.37393936564494
H          -2.06936311661523    0.72067248528844    1.79862787442093
H          -2.06764697210512   -0.16190806324227    0.33419231096089
H          -0.65608454217113    0.07101470865962    1.19585212422087
