    26
        -50.46925941  Gyration_radius:  2.4651595703 Dipole_moment: 3.415
 S           0.32181893149162   -0.36952760519923    0.89641262941995
O          -0.13711280704328    0.70080945813407    1.76302265999037
O           0.72850022340686    0.14712416355353   -0.40996517777412
O           1.54605730851644   -1.07465610908825    1.52958218148209
O          -0.68545293490795   -1.42326427711313    0.74482047965586
O          -2.20055577411962    1.80083101511952    0.59539514846863
H          -2.75658445671384    2.15591540379591    1.29099165067666
H          -1.40029672686924    1.43600428086771    1.04869819135737
O           0.11745267617623   -2.85043237515614   -1.37228553701288
H          -0.15535323125586   -2.42936601328712   -0.53234825191111
H           1.03157997270386   -3.10996208888227   -1.24958445838337
O          -0.53480352110800   -0.54862778875795   -2.65035072902862
H          -0.32418173892355   -1.49446136298332   -2.52666781989144
H           0.06264366314970   -0.11059832202613   -2.01146597194217
O           1.62979004490259    2.44517823529600    0.54423000356922
H           0.97374388221008    2.51218608297770    1.24613902440017
H           1.30345108753042    1.70793416072503   -0.01010985204429
O           3.35613831107080    0.77573897029926    1.61733813833723
H           2.26328687955428   -0.38902423875088    1.64663699766464
H           4.03016067838762    0.60199865132060    0.95687809784776
H           2.81831509292724    1.53481913833686    1.27111438692945
N          -2.44032129706449   -0.40352011844784   -0.89100826852502
H          -1.87341281688434   -0.94042764225330   -0.17493439385077
H          -1.80060646255501   -0.39258596865776   -1.75981690970956
H          -3.33839729581513   -0.83713972595988   -1.07432855964418
H          -2.53585969868550    0.55505407609800   -0.48839366007840
