    26
        -50.46925945  Gyration_radius:  2.46519942784 Dipole_moment: 3.414
 S           0.14203361305978   -0.98526184260684   -0.23024477121383
O           0.06788629044466    0.37678593624472   -0.75786673885682
O          -1.17754962166716   -1.48960386688526    0.10392423580117
O           0.79096503451823   -1.87946279350397   -1.31471905205725
O           1.05923344014385   -1.04835638959410    0.91114817919670
O          -2.27136547040930    0.01675067520273   -1.94184782857611
H          -1.45616270247113    0.37316853418634   -1.53469619178596
H          -2.61553714859647   -0.58734492607551   -1.27536120798134
O           3.11218924855969    0.53268506842761    0.24085893473751
H           2.44185903317067   -0.13771718432392    0.48249289143049
H           3.44072032254002    0.27470104355459   -0.62139126329199
O          -2.16114993389373    0.08947436442829    1.93928433158262
H          -1.83877072979805   -0.50662321906643    1.21826355149378
H          -2.76367760790252   -0.43847852709137    2.46588491872600
O           1.19617039898304    2.43411805984937    0.50474238002136
H           0.67680215941178    1.89444257328438   -0.12450427089809
H           2.08839173478152    2.04203871902445    0.43759576327731
O          -0.76397993793368   -1.60036983856324   -3.36695525141958
H           0.19699244400706   -1.86075732210790   -2.11790108059536
H          -1.45764255127272   -1.02012959429392   -2.95774896155498
H          -0.32762948738090   -1.06614602716053   -4.03396137040905
N           0.32215243925648    0.93327769344116    2.43621958137065
H           0.63674410936207    1.72023609334151    1.76833685235317
H           0.70510095897955    0.05666114968228    1.98104901585317
H           0.67110268390956    1.06076989208632    3.37968590009408
H          -0.71487871986668    0.81514171854382    2.40771148268744
