    26
        -50.45845121  Gyration_radius:  2.35305556016 Dipole_moment: 5.891
 S           0.56953600443724    0.58580798220653    0.15909369880433
O           1.98396435050624    0.49648119165914   -0.28863972671410
O          -0.29672083733094    1.05411795192185   -0.92931222427772
O           0.15552225641681   -0.75742566022220    0.61389002662222
O           0.49534745101692    1.50197574310956    1.32766480402341
O           1.44456249671418   -0.48791448350755   -2.70830685499965
H           1.77572914316953   -0.12976269317435   -1.86021802195517
H           0.92090863569848    0.22236032007020   -3.08674635443032
O          -2.47016626173087   -0.70756886120959    0.90895376435779
H          -1.50357997850324   -0.86459838907728    1.00724345032653
H          -2.58079701786441    0.24002745119756    1.14886852748775
O          -2.13386370828712    1.92670338835370    1.17941281426796
H          -2.20978182684663    2.33514598617717    0.31386377911348
H          -1.17125100435174    1.85876406263793    1.34048568362060
O          -0.20761649370952   -2.23396817408663   -1.54796462787660
H           0.02569066874225   -1.89661885063353   -0.65337717876598
H           0.44885646664495   -1.80378668449753   -2.14117993494467
O          -2.08257554375376   -0.58681435267589   -1.55356300000460
H          -1.40316014100265    0.18367273637121   -1.40658837250585
H          -1.41464326320627   -1.40315619004865   -1.67901104421416
H          -2.44312934564537   -0.70955108335415   -0.56194077493591
N           2.46936196074200    0.21294068018715    2.14331050054759
H           3.26543915390170    0.60930532684618    2.63135423245301
H           2.55902111263004    0.20138098648875    1.04836513172559
H           2.22177108020861   -0.70907892794377    2.48996536256443
H           1.58157464147550    0.86156053313059    2.10437632971194
