    26
        -50.45932268  Gyration_radius:  2.40738822216 Dipole_moment: 8.392
 S           0.55764627461025    0.41555198666424   -1.05381995257076
O           1.93196387208994    0.38475919963949   -1.54112695324222
O          -0.36413812240643    0.65167077426733   -2.23345758819918
O           0.20720861300297   -0.88104909733701   -0.43749875929566
O           0.38484396225846    1.48294150234425   -0.05914274244692
O          -2.05849860814868   -2.01577047189103   -1.36446686226473
H          -1.88987134037521   -2.30549042833060   -2.26256542460828
H          -1.20043434725672   -1.71952746158165   -1.00609921479222
O           2.06836365024395   -1.34373162244413    1.37181353744324
H           1.35895343343274   -1.23851011426014    0.69222638038495
H           2.53054133855539   -2.15187039722941    1.14294632489339
O          -1.08777907493382   -0.77598351870414    1.97096023218128
H          -0.70077075413190   -0.86687994319824    1.08327088190569
H          -0.40141002322045   -1.03680257684403    2.58695199824927
O          -2.13194002289321    1.53831654505182    0.92147872689154
H          -2.04347903238046    0.76722745839340    1.50401761002041
H          -1.22302667327883    1.72104016388638    0.62244863173557
O          -2.71973008714562    0.58933568670288   -1.45153064562430
H          -1.39131099763657    0.68607273324184   -1.93469056687802
H          -2.78509256502055   -0.38119975476049   -1.33194645986191
H          -2.67500442777903    0.99193602544681   -0.54149695055513
N           2.78260225860305    1.12454061619432    0.70617734667306
H           3.53057546183390    1.74555831875031    0.99386787150912
H           2.74268082259528    0.22037900339369    1.22767730795153
H           1.81363738222163    1.54675374061418    0.73075424383263
H           2.76346901716097    0.85073162198942   -0.33674897333326
