    26
        -50.45997515  Gyration_radius:  2.57085916442 Dipole_moment: 7.025
 S           0.17191923832260    1.02725053507642    0.02007684591351
O          -0.26189571273795    1.08210298452435    1.39613736230323
O          -0.88032044356903    1.41294585999510   -0.91894464424903
O           1.40543671718896    1.78398078812196   -0.23114467190091
O           0.57265824598239   -0.43878221529263   -0.33248565875640
O           1.06536807260933   -0.45777556838273    3.05882482358534
H           0.63477983731765    0.13822297094595    2.40496712492455
H           0.98810341294958   -0.00995077110060    3.90343567865881
O          -2.80590654844718    0.34353590222635    0.61504787314496
H          -2.36843103608964    0.64083220785967    1.42067002849880
H          -2.32438647003508    0.81015219783114   -0.09073209034882
O          -0.20690692988611    1.30846947055177   -3.41765112755084
H          -0.57670142007005    1.31134483571516   -2.49377626425246
H          -0.41131250042624    2.17367503136193   -3.77705077478000
O          -0.50318177154750   -2.60352787831617    2.69721927138825
H           0.07684714050502   -1.82914668598680    2.87796077740617
H           0.07857838512737   -3.36304841756251    2.64244026478203
O          -1.37773823274895   -1.88367148603961    0.27012763853125
H          -1.16252471078860   -2.21179158567578    1.17424185441510
H          -2.07945199064078   -1.20202581986234    0.38769721390519
H          -0.22605769208955   -1.07430058330540   -0.10620235679681
N           2.07845144050210    0.59688202761769   -2.33633651922992
H           1.90034671074626    1.19363695886010   -1.40267013064509
H           2.98757838642056    0.75526623681491   -2.75733102936765
H           1.95415750643210   -0.37023466564894   -2.03818771330651
H           1.27059037494683    0.86595764961119   -2.96633375626752
