    26
        -50.46742646  Gyration_radius:  2.4019243722 Dipole_moment: 4.774
 S           0.25111793794659    1.29426519871585    1.10515942593230
O           0.78038275779211    1.38366586725608    2.46383761418100
O           1.37779709888469    0.47942497011947    0.36272782593029
O          -0.95570561586468    0.46875221247608    1.06211918839309
O           0.07283344156243    2.55491577173622    0.42678329663095
O          -0.61011113139926   -1.92398255407798   -1.59573313771325
H          -1.34701453722176   -1.26836048991669   -1.43529937470334
H          -0.98740058055528   -2.62476153356981   -2.12847278435779
O          -0.20394044270063   -2.00972939152406    1.16256425999271
H          -0.13258038520385   -2.18339412446072    0.20841909205022
H          -0.65351501348550   -1.13031782668402    1.19901644574714
O          -2.35703767677950   -0.02663415431897   -1.13867101615592
H          -2.03108287977551    0.17272715573437   -0.23760406289708
H          -2.12153630675902    0.76197245979581   -1.64798889230419
O          -0.93928884564495    2.21966570865196   -1.94307105605674
H          -0.93966342448141    3.07114174017841   -2.38292079499372
H          -0.60796886891186    2.39255177079596   -1.02246635356271
O           0.93526115119076    0.26881364220265   -2.15179955571934
H           0.25573391013657    0.95840530802077   -2.28041215134772
H           1.24607905433089    0.45220624751964   -0.63782194166633
H           0.46663810182728   -0.58474688011133   -2.11611044932398
N           1.72416031606788   -0.97002688431526    2.56938024254789
H           1.00281609266657   -1.51633416359763    1.97927336517593
H           1.83692049226118   -1.37128604890499    3.49508739530748
H           2.60752219145062   -0.93173824999451    2.06881152630624
H           1.32958317269770    0.06280424831166    2.61519186258849
