    26
        -50.46232202  Gyration_radius:  2.55746789858 Dipole_moment: 5.324
 S          -0.68446732015964    0.44712653120580    0.07897353594027
O          -1.86334115324455    0.32055447106581   -0.90783178388170
O          -1.14639494263393   -0.09691297027889    1.36201683955288
O           0.43649848272468   -0.34000831561005   -0.45466366436066
O          -0.31436778883702    1.84175227756519    0.23451696005567
O          -1.89785087397983   -2.84229248593091   -2.43634829640563
H          -2.84648707251542   -2.71066455040233   -2.39495123612381
H          -1.58717345241740   -2.88987786098397   -1.50668636374424
O           2.44977967888174    0.32520527729756    1.15127492976038
H           1.82446379324482   -0.07975444559224    0.51131164154093
H           2.65787062539515    1.19938025288305    0.75704932570173
O          -0.98862179729142   -2.53898927948208    0.09012146679107
H          -0.25990107242939   -1.94066374081577   -0.14544901575327
H          -1.49033506181788   -2.02940009621826    0.73668117807211
O           2.15113654671768    2.76164425242975    0.11618194045074
H           2.35543023013006    3.04372277592018   -0.77643782157859
H           1.19951890904715    2.50972824541748    0.10801441302508
O          -0.64788671376612   -0.54689783911953   -2.96160915647387
H          -1.05972450084024   -1.44412712208523   -2.97326169714116
H          -1.47791271558765    0.06945337610840   -1.81413873819374
H           0.13969508202396   -0.62597086531033   -2.40580758599560
N           0.61296397376312    1.12589849281527    2.77341623262037
H           0.47783143837163    2.10705366444654    2.53492588399203
H           1.48777020723807    0.76307596077641    2.21906855700143
H           0.68178912689912    0.98436155252183    3.77618029695227
H          -0.21028363885697    0.58660245134960    2.32745216817613
