    26
        -50.46232189  Gyration_radius:  2.55677851165 Dipole_moment: 5.330
 S          -0.56318647736509   -0.53272831983402    0.26713673233882
O           0.34016776002895    0.26790222841944   -0.57174702254861
O           0.11557487475375   -1.70165202974101    0.79535098261202
O          -1.11114307555725    0.27070117142629    1.36712417681707
O          -1.75939850999945   -0.96586345548764   -0.60533314523195
O          -2.54246081617209    1.48613533033196   -2.98660784483691
H          -3.43322288587580    1.17329920364719   -2.82012247595058
H          -2.23041348945238    1.88411612410489   -2.14556368648373
O           2.48128558412861    0.56504358334384    0.97811095276389
H           1.76848134789596    0.61399810398848    0.30426777525007
H           2.87427348447476   -0.32368438358344    0.84148409655097
O           2.72248873638698   -2.07627101101360    0.73007563632995
H           2.96528593945454   -2.56429923522463   -0.05789787239121
H           1.73866290937161   -2.04438313658158    0.73471951737754
O          -1.53292122149694    2.17941331260458   -0.57778700744316
H          -0.69247772125423    1.70451948213708   -0.69042823887999
H          -1.89209431819571    1.79999386211095    0.23246671803382
O          -0.81165936465154   -0.54035495654873   -2.92257751784315
H          -1.45821807047034   -0.93244449926784   -1.57534752204013
H          -1.41733173632290    0.20176978705861   -3.16178678164705
H          -0.05187199509718   -0.13009852185408   -2.48690737110295
N           0.90464670496484   -0.06363044607873    2.91863252361205
H           0.95911808820430    0.39140805310548    3.82440646003883
H           1.66418723258886    0.28501670561669    2.20740796985982
H           0.98949968530666   -1.07602157524556    2.99443836667616
H          -0.02727264562295    0.12811463253584    2.40648457814118
