    26
        -50.47104610  Gyration_radius:  2.54689266168 Dipole_moment: 4.089
 S           0.45840463836136   -0.94546849281397   -0.33312023623294
O          -0.77003032402138   -1.53641776846483    0.15295499128428
O           1.59607422993111   -1.98070556504305   -0.16969328228892
O           0.35787173675307   -0.57840933790354   -1.74409276532228
O           0.82924768050507    0.23601529101446    0.47056320828290
O          -0.55298841961217   -0.87915039092446    2.69867326461142
H           0.28161434225286   -0.41018108836285    2.60916032777703
H          -0.69592341167487   -1.28597424070048    1.81695490326823
O          -2.52912198306330    0.85038470060128    2.58380960094755
H          -1.80025322632279    0.20394018578723    2.78393470724862
H          -3.33834324195661    0.33647968250271    2.57757326395372
O          -2.21435821017788   -0.02340405704439   -1.66065272694860
H          -2.45743121309743   -0.81997862611511   -1.17568766394525
H          -1.29014370125173   -0.20584976341577   -1.93825098782554
O           2.59498466301846    0.43095938478830   -2.73541765190744
H           2.82465413441191   -0.09683366030923   -3.50214977321478
H           1.71305826486723    0.11368249614266   -2.44205051567640
O           3.42354185288374   -0.18017781129390   -0.26099763916840
H           3.35988057469937    0.11041605102975   -1.19630924644290
H           2.76834328771955    0.35293852596065    0.21063702880888
H           2.44270543259170   -1.44257851263264   -0.20657832389559
N          -1.41001376239179    1.57978797470565    0.29038176620572
H          -1.34422715616509    2.57397818276267    0.09872247228672
H          -1.94283133245317    1.39258085347741    1.18585273872366
H          -1.85985984142199    1.05527199109913   -0.51567671935794
H          -0.44485501437824    1.14869399514966    0.40145926882461
