    26
        -50.47104610  Gyration_radius:  2.54683156357 Dipole_moment: 4.089
 S           0.26146761898670    1.01130272558627   -0.35217276936009
O           1.60936210833309    0.62223284235663    0.00323993502540
O          -0.51677625569230   -0.15216312689464   -0.82129045365676
O          -0.42594908151660    1.65422652457641    0.76577005138143
O           0.33648090477929    2.01149790258294   -1.52974348730941
O           1.90234934803493   -1.39232486594802   -1.67468759778479
H           1.02343294732270   -1.32968843104834   -2.05949212759470
H           1.96843646747866   -0.60208600524283   -1.09629228333819
O           1.87878318142504   -3.19484767087534    0.23834165294925
H           2.74003705120662   -3.15525250600422    0.65737218572315
H           1.94834702407408   -2.62755195429409   -0.57559497470831
O           0.81371682402614    0.27152243953128    2.63190771894033
H           1.69279586139206    0.38789842656949    2.25459147088928
H           0.27004705643494    0.91897684915530    2.13208484574534
O          -2.87113350705681    2.47524737447444    0.17122841568574
H          -1.99770911312278    2.16223860690524    0.49314990963161
H          -2.91231414504207    3.40930418867354    0.38340801570455
O          -2.09387672715459    1.57088230085017   -2.22904995325077
H          -1.89513853038125    0.66673964120471   -1.94800859030626
H          -2.58475796764921    1.96702669474007   -1.47719084806374
H          -0.58013106230942    1.99863582214323   -1.93886381957682
N          -0.12893645227414   -1.75680237859380    1.21028975349620
H          -0.93367672701450   -2.26066491623389    1.56802521737931
H           0.23720359464757   -1.05340541924253    1.91624987098915
H           0.64622582400930   -2.41850368503077    0.92365256269312
H          -0.38828625292319   -1.18444137994643    0.35307528872133
