    26
        -50.47104607  Gyration_radius:  2.54673442242 Dipole_moment: 4.091
 S          -0.06309092063438   -0.47450775165607   -0.99418156011062
O           0.64324576584815   -0.83871220069401   -2.32124632942776
O          -0.26429229357834   -1.69016242585464   -0.23509758574949
O           0.82575221164349    0.45711860958753   -0.27208655565692
O          -1.33096234953838    0.18326856965285   -1.30329165887192
O          -2.54866542803165   -0.60665192455171    0.89301770936811
H          -2.32517686964370   -0.23884226445249    0.01023772943667
H          -2.25625673634186   -1.52260198850192    0.82782621569408
O           2.04847982380311   -1.76074134665993    1.03231241543475
H           2.39363888098936   -0.94731626657255    0.65317318083381
H           1.21221233749370   -1.91789874407266    0.54313843649747
O           0.96690064936554   -1.22937406921088    3.36829972770962
H           0.55165270785557   -2.04080812933005    3.66500391498882
H           1.50196840820864   -1.47710888389337    2.56732383399462
O          -1.05626453186231    2.37332148808372   -2.76431049747052
H          -1.60803733028384    2.26306859665081   -3.54053979906262
H          -1.24807765096502    1.60466089097422   -2.18391619942154
O           1.49495984337647    1.55678538683184   -2.67636391891922
H           1.04029334139350    0.02345486037994   -2.64795776747679
H           0.65655416525072    2.03408029851532   -2.85659045476828
H           1.57706020108390    1.55309135232692   -1.71241909334759
N          -0.44860424648861    0.55980669451102    2.01222611576320
H           0.05646457346514   -0.10302489153899    2.66519475018459
H          -0.57556709693650    1.47302103823954    2.43577719423403
H           0.13030528822113    0.62947505712519    1.12356742273786
H          -1.37449273370333    0.13659806410877    1.71090277339789
