    26
        -50.45899150  Gyration_radius:  2.38956331969 Dipole_moment: 5.874
 S           0.35523945099530    0.80245879005340   -0.09699508086496
O           0.46922857897543    0.94845096393801   -1.57073949289479
O          -0.77295825691908    1.62201628303681    0.40121490801762
O           0.07124557967292   -0.61031656080490    0.23328399438630
O           1.61422176756627    1.21170984401820    0.54692947355696
O          -2.72027394383353    0.34475821642484   -0.75792523551923
H          -3.33799489614339    1.03496460578449   -1.00852889770700
H          -1.99653230424280    0.79994102154909   -0.25180212093914
O          -0.12470303343593   -1.01857220949179    2.79905885305461
H           0.43771025247634   -1.77237245011497    2.98350813248737
H          -0.13576228917127   -0.92888998282395    1.80994093750141
O           2.43979910168160   -0.85721322263727   -1.76746485071672
H           2.96112699493260   -0.73306645651641   -0.97251885848514
H           1.83613051007577   -0.09201065336649   -1.79044057545208
O           0.16915869261164   -2.37538081712553   -1.66710920796722
H           0.09863814689691   -1.89128740550444   -0.80789078764948
H           1.07284626265674   -2.15190654463826   -1.95860880605893
O          -1.19534265634210   -0.51388090449816   -2.63016972075778
H          -1.93536564088313   -0.32927396426613   -1.95823182742522
H          -0.45648952498096    0.19516796410197   -2.29006933663210
H          -0.71721400772315   -1.41833197461145   -2.34407466573881
N           0.37723181194433    1.57339271930571    2.69082729657110
H           1.15469510245685    1.48182411597400    1.92200491810111
H          -0.40124164990732    1.80699594651979    2.02482831645321
H           0.19712134098184    0.60592896865618    3.04764181549810
H           0.53948461969527    2.26489372704511    3.41333082914919
