    26
        -50.45899153  Gyration_radius:  2.389559368 Dipole_moment: 5.875
 S          -0.53503200550545   -0.63357212620480   -0.30286091143611
O          -0.12994323401991   -1.61274993729822   -1.32477656495525
O           0.57624623218568    0.31064802436976   -0.05958646373282
O          -1.72697229315184    0.12074462584633   -0.76829868996933
O          -0.84186064612821   -1.31451072974721    0.97573466283368
O           2.74995069089148   -0.88528496949812    0.73643879751364
H           1.94295124673952   -0.35332753844204    0.50784576853956
H           3.45075752601185   -0.54329079100692    0.17933707036406
O           0.27880631777212    2.78959652444488   -0.76891246759200
H           0.04442639849056    2.59639551534210   -1.69588651445797
H           0.60982291611344    1.91490004131469   -0.44811393187330
O          -1.18049378569625    0.79164437675161    2.46434297684782
H          -1.89854807744827    0.55055574494553    3.05341647521224
H          -0.98508169334145   -0.02183247219849    1.92831746505214
O          -0.44227538547239    1.18876679692919   -2.86398888979219
H          -1.03417599634298    0.74964847667677   -2.22585080373367
H           0.15404408316491    0.49839904184851   -3.15888087085154
O          -1.83207579200511    2.24621655810968    0.45741648639440
H          -0.97046340443387    2.66077780788774   -0.00524639644032
H          -1.92208054701152    1.33535198579969   -0.11429376657969
H          -1.54675993321559    1.86114407895281    1.35379966392629
N           1.08497955441151   -2.91433334481444    0.43218096244681
H           0.67249765043021   -2.55021116576716   -0.51710020765179
H           0.32120336059385   -2.51944037829971    1.03629774084185
H           1.21317403566536   -3.91627145179143    0.51116223750693
H           1.94690279130742   -2.34996471396546    0.61750618175488
