    26
        -50.46811969  Gyration_radius:  2.53471032187 Dipole_moment: 5.652
 S          -0.18525838149548   -0.63787691102478    0.61124535604110
O          -1.29861991908269    0.20950106715640    1.03993720792136
O           0.60700360620807   -1.09408966347444    1.83826906672439
O          -0.65721623166963   -1.81633033347728   -0.08783032469089
O           0.73079440763277    0.14054200684126   -0.24977263984682
O           0.02810022090902   -2.50369523318211   -2.52042667771905
H          -0.40474540337165   -3.33203682647726   -2.73196862826608
H          -0.12141815683477   -2.35651163055983   -1.55502643740952
O           3.11221025792892    1.01257656478311    0.59187348501159
H           2.26029935301204    0.75352454398152    0.18583050597486
H           3.67994555089895    0.24215042540997    0.53425849683975
O          -0.52397108907855    2.46619598442944    2.15243775760621
H          -0.86208514163149    1.67655932464267    1.67463693262829
H          -1.16420888298717    2.65149597082530    2.84169386986159
O          -2.80537029518888   -0.19521694569159   -1.04619148401916
H          -2.36135363592556    0.05723301514977   -0.20035074887451
H          -2.92906813447122   -1.14485225303134   -0.96368127072185
O           1.61043481446690    1.00015860996360    2.82825554080188
H           0.91361151715099    1.67457708022548    2.66728253276315
H           1.00933180828957   -0.26404700394461    2.30329659515541
H           2.30275477659308    1.17213902006293    2.15654254115104
N          -0.59103638037281    0.08040027396216   -2.45552087407388
H          -1.57170876111943    0.05522602522844   -2.04926426897607
H           0.04588426478404    0.22464823815743   -1.60296053218584
H          -0.35626628477205   -0.87408160566195   -2.80521549991185
H          -0.46804385981391    0.80181022566879   -3.15735052179392
