    26
        -50.46858872  Gyration_radius:  2.44350803061 Dipole_moment: 4.171
 S          -0.72565012876926    0.34550933672708   -0.79545768721592
O          -1.65618768445683   -0.57632815195606   -1.39698485527246
O          -0.03796740270487   -0.41598809082526    0.41651741761618
O           0.39234661634502    0.66618598134613   -1.68813473626941
O          -1.32329075799267    1.53268069980108   -0.21126918970648
O           0.64901864496540    2.52398622645496    1.21819152678050
H          -0.11596530209550    2.17979777049541    0.69855824967503
H           0.45460071937779    3.44538041890122    1.39582469639039
O           1.06206895499700   -1.91048709574919   -1.83217371702822
H           0.83133939468727   -0.97155807620790   -1.95656722172369
H           0.21583904635752   -2.35938855120252   -1.77501477732446
O          -3.61643565333526   -1.35929346876891    0.19830680435007
H          -2.98519292081936   -1.04533941741628   -0.48582624981633
H          -3.77869292565926   -2.28453860205590    0.00852322268292
O           2.50948482078791   -1.51582660854902    0.41540565911049
H           2.12794619599777   -1.80277351116842   -0.44504024573158
H           1.76574778081848   -1.55559057594715    1.02541587582454
O          -2.07262242021724   -0.01007851026084    1.92052674802678
H          -2.14532569277724    0.83563169702539    1.45554368661063
H          -2.75786323811144   -0.57707078667556    1.51011861369349
H          -0.73735742341866   -0.37069358441581    1.13311679285087
N           2.42787273324148    1.06121906327392   -0.15270310116893
H           1.97433242008517    1.64228859326774    0.58052399116344
H           1.67349728246007    0.96832152766478   -0.90305146232500
H           3.27223049561975    1.49233650565128   -0.51281654923180
H           2.59622646461703    0.06161722059000    0.17846651803886
