    26
        -50.47008512  Gyration_radius:  2.40452991794 Dipole_moment: 4.421
 S          -0.36131169770791   -1.01181434469340    0.58716019324385
O          -0.28836340824924    0.33975408119694   -0.25815339510348
O           0.46543079797072   -1.96320184911692   -0.13086428854655
O           0.22037466340648   -0.62833712496475    1.87395840354786
O          -1.75584788573274   -1.36880461752998    0.66889747901094
O          -1.71561159914339   -2.69424562631692   -1.62781167014837
H          -1.95753065598666   -2.30186695328769   -0.76319178168768
H          -0.86950162205087   -3.12000793764742   -1.45094813866268
O           2.37706611685288   -0.42702606126305   -1.05574354249859
H           1.75614335320916   -1.11730723700576   -0.71766192709240
H           2.01744522921274   -0.16368062053777   -1.90592257070226
O          -1.56150051189024    1.31556502314715    2.18280680335832
H          -0.93967503014912    0.56653956420846    2.24671017522281
H          -2.34018771163392    0.94418565956740    1.76192634865295
O           0.14511127392604    2.89571212643826    0.81348850326027
H          -0.50823954164140    2.47957190320876    1.42113046556197
H          -0.16233042293401    2.65065965761644   -0.06374573365951
O          -0.97446287277482   -0.40074025432201   -2.64958480190723
H          -0.54286995929447    0.10415401199533   -1.19068708903441
H          -1.24735826088022   -1.32745492759649   -2.39972195733895
H          -1.76836816887426    0.02091561255983   -2.98493122658617
N           2.03869838453455    1.06137325777493    1.13619937860231
H           2.30776463467541    0.63122828391904    0.21434163257882
H           1.40315115069199    0.33765452756058    1.58730666273422
H           2.84783854951105    1.26879793244607    1.71144441809702
H           1.41413519496586    1.90837590263769    0.99359764908752
