    26
        -50.46876621  Gyration_radius:  2.44072201829 Dipole_moment: 3.760
 S          -0.70516339342751    0.85460380579003   -0.45787455537368
O          -1.83472283781737    0.40458752299933    0.33317369484394
O           0.16183869319516   -0.29259549611936   -0.81280509152905
O          -1.03329192329065    1.64160745735459   -1.61654834761892
O           0.12167758011466    1.73722332407169    0.53736815895137
O          -3.23971209190044   -1.81170581120138    0.15749940724950
H          -2.85921062092297   -0.90498637232403    0.11000196864660
H          -3.94894921110950   -1.76221453652491    0.80088445528062
O          -0.28181567813397   -0.47262565589804    2.44422420884927
H          -0.82826490486149    0.12527666983237    1.90662548189744
H           0.64560202025879   -0.26688648324076    2.21561466083917
O           2.07996365354862   -0.31445794800877    1.05945896238828
H           2.63786054529141    0.45533914372714    0.92299871912628
H           1.49231173509699   -0.34237710449228    0.28082647599691
O           1.24997948752199    1.30214874358843   -2.84169866534385
H           1.28215492024259    0.34210351714686   -2.81259458332421
H           0.33934814701083    1.52252620752139   -2.53479742372417
O           2.39874346418782    2.16188720963003   -0.65955901616362
H           2.59304799253560    3.09429162194210   -0.77256602386135
H           0.99289677989159    1.95293650077520    0.11623874426965
H           2.09567232118361    1.83455012488250   -1.55200944503038
N          -0.66722195918289   -2.30211966777745    0.63604063962732
H          -0.51136044557194   -1.75886984302204    1.54584882119209
H          -0.17621186563238   -3.18839697452739    0.60861310637807
H          -1.69737849632319   -2.39157906548042    0.47762895706787
H          -0.30779392194002   -1.62026689064846   -0.09259333063593
