    26
        -50.46914346  Gyration_radius:  2.52093594187 Dipole_moment: 4.900
 S          -1.04925231026352    0.18013143475159    0.47449751113079
O          -2.32774386174435    0.62929341191820    0.95141426690808
O          -0.07593076930958    1.41890287821379    0.40057482686090
O          -0.36553985930038   -0.75903454089322    1.35368311705213
O          -1.09919029266921   -0.35216182877545   -0.89780180059974
O           2.14638823294505   -0.60655849866050    2.28864294360399
H           2.33570885473911   -1.54781307198318    2.29704019019199
H           1.18692484931475   -0.53665855852843    2.11642825467218
O           0.84600176052334   -2.98578564086511    0.67244723847907
H           0.33492087250351   -2.21321349921582    1.01501284354079
H           0.22899970368392   -3.71793801715723    0.64153277197324
O           2.57993010096178    0.71128321009085    0.02238723149449
H           1.82261826651488    1.30705156133061    0.12115883809376
H           2.65941045971965    0.28684600707953    0.90785255978377
O          -3.29015965388310    1.19279939652136   -1.42338541296561
H          -3.22937009823848    0.97483817181422   -0.47057233236702
H          -2.73216036553058    0.52134934341918   -1.83284126924474
O          -1.55736633283025    3.09215843094504   -0.87436265374212
H          -2.25455081367414    2.47672488436559   -1.22664774946966
H          -2.00301468992732    3.64957077533359   -0.23249749925500
H          -0.59976551272022    2.11291797307061   -0.09542322331084
N           1.30738499408617   -1.17944738120902   -1.27010770300172
H           0.29219561929783   -0.82371339036130   -1.21459409771111
H           1.92601518794940   -0.42307841802966   -0.82543053633756
H           1.33420709474707   -2.03172900928028   -0.67330356309563
H           1.58333855312337   -1.37673560387423   -2.22570476267591
