    26
        -50.46914344  Gyration_radius:  2.52101829001 Dipole_moment: 4.905
 S           1.00365012834331   -0.32136789247886   -0.49758743858322
O           2.23316382107556   -0.91106317327423   -0.94962812418604
O           1.17408085577614    0.52728058533042    0.69391152934872
O           0.25739747903142    0.39553304845357   -1.52311561998273
O           0.02824100948352   -1.47520109707463   -0.04546283212577
O          -0.87138735839808    2.75611716369296   -1.31429911302406
H          -0.39820787583464    1.90855717545738   -1.49647200009232
H          -0.24730280893312    3.45515778348262   -1.51314109177984
O           3.38742516042406   -0.90876943106060    1.40644266454322
H           2.87479453671587   -0.14079733215033    1.68429135471087
H           3.24648492976576   -0.92614456532902    0.43739832727830
O          -2.57965237463166   -0.61817549489382    0.35779370258378
H          -2.72931708610920   -0.41980979870456   -0.59548875143114
H          -1.83919623204268   -1.24251502750311    0.34834592556982
O          -2.32584672945338    0.09530610150712   -2.18918338495660
H          -1.35596263378888    0.04072929096102   -2.08195812589402
H          -2.50613253103098    1.01159681578803   -2.41249371448146
O           1.59645446999872   -2.83197462170057    1.47761444812048
H           0.58556180031770   -2.04322440381709    0.56184985308376
H           1.98127907685193   -3.54108623512906    0.95753592245153
H           2.32645358844208   -2.17031673976722    1.61239794936526
N          -1.18459541209813    1.49158099215149    1.04199950866762
H          -1.37718321542963    1.92383649005634    1.93883828304949
H          -0.18107878557244    1.10294425264096    0.99492880441221
H          -1.84563100599705    0.66853024827187    0.84697455612127
H          -1.25349279691529    2.17327587509702    0.25850736723528
