    26
        -50.45538859  Gyration_radius:  2.47712319214 Dipole_moment: 2.360
 S          -0.08549841087765    0.16748844768974    1.02220818845294
O          -0.12027447069254   -1.08548415299568    0.25324573201645
O           1.15717225367324    0.31227414125882    1.74414717762689
O          -0.40044531965716    1.30419578337743    0.16179433458481
O          -1.26378268815168    0.07586288440461    2.04632080607094
O          -1.34230694423108    1.13082784246552   -2.32446532198243
H          -0.97290711610700    1.43948136432666   -1.47003846667448
H          -2.24584560151348    0.87378073764550   -2.09104254712222
O           2.24841204511232    1.68633905555809   -0.26402947236076
H           1.34277612993406    2.02401360837727   -0.30820579539764
H           2.23269542164890    1.17161025599528    0.56200939501193
O           2.38761372882764    0.12074340516465   -2.36252362738175
H           2.43350452978807    0.68990448883184   -1.54603313182373
H           2.53946039200985    0.70550951566053   -3.10755074938560
O          -2.97863968131176    0.30696325128873   -0.29823459103126
H          -3.40885198076347   -0.25830534234589    0.34443144792004
H          -2.19545820349056    0.65873515382477    0.14642441970394
O           0.07956034716271   -0.94482649387869   -2.20768535496227
H          -0.54858595190532   -0.12923051357598   -2.38969859897551
H           1.03823738293716   -0.59708793098714   -2.33123032668460
H          -0.01741209120402   -1.09321192199778   -1.16169373499407
N           0.04607775706431   -1.83408852611859    3.22348526089066
H           0.00694691014199   -2.61977054814072    2.58663905215185
H           0.84335636353412   -1.26344081008900    2.95278413358856
H          -0.96838128853874   -0.65881657728420    2.65684854080043
H           0.19257647661563   -2.18346710844459    4.16209320994765
