    26
        -50.45538863  Gyration_radius:  2.47694803161 Dipole_moment: 2.356
 S           0.27315868474046    0.91871710067670    0.40399959253637
O          -0.94859824753168    0.32502309142008    0.93931088680838
O           1.11018086846986    1.35458995854746    1.65094661418427
O           1.07926265760885   -0.09801044368803   -0.28794373043586
O           0.03984098942457    2.07142675115326   -0.43429765270365
O           0.53790405528542   -1.32296195217277    2.64874883658196
H           0.15938386814960   -0.53956748560997    2.22697867427041
H           1.40891868387638   -1.06011613175569    2.94862252243645
O          -1.74977644159433   -1.15473716287189   -2.62664288036693
H          -2.59115185198991   -1.60931154667531   -2.70090844146620
H          -1.94619845553030   -0.26661689509623   -2.21984952721948
O          -2.26372171928171    1.05575150566574   -1.31417789534428
H          -2.29243366889815    0.75695652552596   -0.39430913500425
H          -1.49482769042258    1.65263303807354   -1.30929962866216
O          -1.46112911255557   -2.28744800409632    1.05644324755547
H          -0.86884158399655   -2.49107508169194    1.79446811269640
H          -1.51641934114195   -1.30867121712124    1.08141613655898
O          -0.04928947176102   -2.17091995880840   -1.02626385439334
H          -0.69571971526248   -1.82538183331050   -1.74614498958168
H           0.51123212814428   -1.31709391883587   -0.73907280533708
H          -0.63469470401082   -2.36410590560332   -0.18216340139397
N           2.81940970671966    2.40860014202194    0.00250931722394
H           1.97254580602177    2.62036946847599   -0.51947485347487
H           3.26725170683541    1.62427328988853   -0.45432669552120
H           3.44119902787723    3.20626750866837   -0.03766368607329
H           1.89251381080694    1.82140913723018    1.23909524612930
