    26
        -50.45538858  Gyration_radius:  2.47767917109 Dipole_moment: 2.355
 S           0.11464733947977    0.49918177402024    0.90282724061475
O           1.11857221791121   -0.08965201406719    0.00423844992217
O           0.51780029371433    0.05589761897392    2.34743112915829
O           0.12128714585571    1.94181395142080    0.83277508254657
O          -1.19745936562981   -0.09448483560156    0.66230594888842
O          -1.77488445780311    1.92976899774701   -1.04298100503901
H          -2.07531102166300    1.18935705923220   -0.49724919318416
H          -1.05964659903861    2.30464204712117   -0.49966171938249
O          -1.65729588990603   -2.24160576654227   -0.84728766223337
H          -1.31518778958461   -2.89926097979568   -0.22488443542927
H          -1.74143458365707   -1.43657828358723   -0.29359911204367
O          -0.26862493575351   -2.60970533316506    1.47585372537693
H          -0.51716349673969   -1.67528754642638    1.48342870120014
H           0.45981977202797   -2.68848682373024    2.09298216251274
O          -0.83212845112539    0.73022367585674   -3.17527583851303
H          -1.16408033603944    1.27590743942390   -2.41061239340650
H          -1.59975191234032    0.52282008794200   -3.71176438661516
O           0.32110114327066   -1.23492351456908   -2.03748003054876
H           0.74575168940762   -0.76878310985209   -1.18437355929758
H          -0.48965389982671   -1.76180438625675   -1.64015836727530
H          -0.08220345705549   -0.46164213491014   -2.58037480035721
N           2.62037524279679    1.56438221260373    2.11307863134200
H           3.21397166575748    1.10024909360441    1.43729381229323
H           3.19655950250316    2.15269144203406    2.70165128087009
H           1.96911270050710    2.14870199902245    1.59440012489120
H           1.37582749292422    0.54657734949889    2.49743623369922
