    26
        -50.46796293  Gyration_radius:  2.51086459484 Dipole_moment: 3.901
 S           1.01207741293364   -0.23866141250287    0.37750798150614
O           1.67955283547597   -0.56489501364941    1.72672628684569
O          -0.09252348906750    0.70447822326976    0.64534777760231
O           2.00685398893861    0.36681003634020   -0.48180524816312
O           0.48074953159535   -1.47356092344997   -0.19524306748198
O          -1.61879250844517   -2.40500160145256    1.16638538148136
H          -0.88107460316595   -2.23313601314338    0.54892802587310
H          -2.23288276198201   -1.65933396972581    1.03205037255040
O           1.92925179288411    2.78389652871124   -1.51505476796033
H           2.06508385568905    1.94176205511305   -1.01974236484895
H           2.72823574905237    2.92393597198467   -2.02500375075649
O          -2.66013870740887    0.11853493793272    1.05410836214647
H          -2.88024451594497    0.35933123328205    1.95578480520506
H          -1.71862176508126    0.36186903691499    0.93826022244784
O           0.43889197247169   -0.65899415724617   -2.67059984745780
H           0.38851754653475   -1.11650073751696   -1.79659961424252
H           1.38104631998396   -0.53076310443248   -2.80962601314574
O          -0.19658046498563   -1.57246939722855    3.17529245312421
H          -0.81376940740619   -1.94451248427484    2.47669724450578
H           0.16310484632968   -2.32947097798262    3.64178493308692
H           0.95381504716809   -0.91080596899883    2.32914658626861
N          -0.45784604592823    1.63946642043214   -1.73549483088736
H          -0.21434364288477    0.75462470370635   -2.27045608856898
H          -1.36273274101489    2.02078912014870   -1.98935039334376
H          -0.42097856630381    1.34379425629390   -0.70710170999630
H           0.32334832056538    2.31881322746278   -1.85194274578457
