    26
        -50.46564189  Gyration_radius:  2.42009804728 Dipole_moment: 2.436
 S           0.71265326745843    0.66363741535972    0.85613904529602
O           1.53204930820583    0.59818688548393   -0.34822249186960
O           0.75345441875616   -0.57440315520426    1.61565197632352
O           1.26874319828929    1.81750472359163    1.72112548467776
O          -0.67604689425207    1.01180304633755    0.51141580479520
O           0.00609340907215    1.96166882658542   -2.06354818953857
H          -0.65331127331169    2.26749881286607   -1.43385048060801
H           0.71576222974772    1.58681843889172   -1.50593778412611
O           1.44777548060321   -1.54077935684251   -1.84774568132444
H           2.31203839547157   -1.72115561115748   -2.22011086137149
H           1.55730397304122   -0.74279617570207   -1.27352793648414
O          -0.18378128265978   -2.52227963617567    0.13186457476256
H           0.45023447591219   -2.50780890577987   -0.60502887439820
H           0.20794146559662   -1.92867289546246    0.81575487471866
O          -1.86818695894319   -0.84219013753654   -0.67957604221643
H          -1.47694256107876   -0.03895193665281   -0.15206732271876
H          -1.29940467763347   -1.65281078236285   -0.33770104054488
O          -0.81049973286508   -0.40840855437859   -2.89994484712211
H           0.01245396085335   -0.91657138313575   -2.77654202482576
H          -1.53678121370505   -0.68201655394685   -1.68390300623851
H          -0.54968651051409    0.54074129846695   -2.78324214969047
N          -0.46916477607958    1.13715194489498    3.52405976515644
H          -1.37385555370423    1.36569071002238    3.13298448424095
H           0.68702939784698    1.76379294372933    2.53348035234184
H          -0.53081493089569    1.17258445270788    4.53340749030583
H          -0.23505663523414    0.19176558539175    3.23506489046496
