    26
        -50.47015829  Gyration_radius:  2.44030989659 Dipole_moment: 4.695
 S          -0.49406892534013    0.76271925958343   -0.50775858563205
O          -0.07932555754759    0.23582725117379   -1.79994619151660
O          -0.31152418084521   -0.24019339098077    0.55262067383229
O           0.18285867364705    2.00296915447836   -0.16427776303005
O          -2.01151749323083    1.03550425278245   -0.62754530237987
O          -0.14873762875939    1.81408183288034    2.44810033702438
H           0.12640102965241    2.05179301555883    1.53866029032528
H          -0.04070099353791    0.85877774097631    2.48464331906998
O           2.18390452647408   -1.19557554631664    0.27044177675422
H           1.33591886914363   -0.86256732645630    0.62327135120424
H           2.58164538468179   -0.40509734361930   -0.15207799440202
O          -1.32113104689471   -2.62915509823338    0.09601582745642
H          -1.08545799498034   -1.69771855798884    0.31481595957017
H          -1.41148387590654   -3.08641659717056    0.93348314987408
O           2.53387438471713    1.10916802242243   -1.06171008352920
H           2.30844052375350    1.00727928228357   -1.98920122831861
H           1.77259261303711    1.58478132583497   -0.67792723456437
O          -2.64517542569103    2.09198991192526    1.65298986253629
H          -2.32656937227173    1.40981257179217    0.24355905154388
H          -1.77103853318827    2.01592385069565    2.11533578448245
H          -2.79759933067936    3.03039200350600    1.52270917414520
N           0.69545703515787   -2.21934132385091   -1.59579147437469
H           1.47632467564825   -2.00223981596222   -0.89570822337400
H          -0.07819040359477   -2.68282920078644   -1.07454553509849
H           0.32751451941461   -1.24544404153976   -1.84231144857077
H           0.99758851714132   -2.74444121298852   -2.40784548302583
