    26
        -50.46930064  Gyration_radius:  2.4343112392 Dipole_moment: 3.388
 S          -0.88176434148980    0.04075799461369   -0.89819989259004
O          -1.21303183977157    0.83055885828928    0.28718216749351
O          -0.39041227927206    0.86614792685269   -1.98017743290558
O           0.11355739773857   -0.99068585005966   -0.54530820962213
O          -2.15497823219865   -0.68472922900780   -1.37471059196007
O           2.16057362120235    0.66787096713975   -2.65155036832831
H           1.19054918342915    0.78558179553505   -2.51507041335352
H           2.24703904786340   -0.08753620917516   -3.23495067614360
O          -0.55007230229011   -2.29108700522486    1.67702924033080
H          -0.27241325971641   -1.57085779588523    2.26546263052224
H          -0.21278177363610   -2.00818068783273    0.80456350734442
O           0.23812096723636    0.25045701358436    2.42761751204466
H          -0.08790226123566    0.78460048610208    3.15328525517659
H          -0.33941074622121    0.46611634166616    1.66302793163177
O           0.54846608327500    2.73959527166874   -0.01790111646455
H           0.48222589636763    2.93132928253251   -0.95807639726741
H          -0.24235215997774    2.18606585753987    0.17244482179185
O          -2.97587141856254   -1.91544405713368    0.74267997482976
H          -2.53988513556936   -1.12056616815643   -0.55766197921138
H          -3.32153154328587   -2.77742745553097    0.50118270321098
H          -2.11791662730964   -2.08459834913782    1.21861653174912
N           2.10120411518937    0.59456813016610   -0.00894721557007
H           2.50716049754327    0.62147833753731   -0.97084655735498
H           1.60410180504010    1.52072161585623    0.14138252833123
H           1.33919744920282   -0.14704532268884   -0.06907825592545
H           2.76812785646001    0.39230824074127    0.72800430223737
