    26
        -50.46930067  Gyration_radius:  2.43415800672 Dipole_moment: 3.386
 S           0.95901126570744    0.77520732300905   -0.25572802300827
O           1.80943203198096    1.29820844440466   -1.42948524424646
O          -0.35085793396562    1.42374910134844   -0.30561228538799
O           0.79895753778321   -0.68123288565876   -0.43525087478406
O           1.65726295787534    1.05723723991161    0.97970443642824
O          -0.80459355635215   -1.25903423436488   -2.47594318886163
H          -1.61725721319687   -1.05263036746921   -1.98697257945278
H          -0.11656008929511   -1.23897367097696   -1.78222980619552
O           1.98732396642728   -0.91476576079365    2.71203340216596
H           1.96095302074037   -0.12542237960953    2.12080664656828
H           2.75407022588995   -1.41751939571703    2.43325664054130
O          -0.89330635084102    1.39041672636985    2.25275099715719
H          -0.79259481041486    1.59961410767161    1.29669828589173
H          -0.05608700213376    1.65861696953333    2.64293439994989
O          -2.39617740819419   -0.25513688658399   -0.45038861684087
H          -3.19580165870765    0.26730266410900   -0.52695788537470
H          -1.65961554941112    0.39435074647089   -0.43107772325601
O           0.30519742926522    0.89475956757434   -3.49023811194111
H          -0.21333201105574    0.09485231663369   -3.20318166056782
H           1.22683403479539    1.21936228497811   -2.24188128392070
H           0.84368003602984    0.61155360347774   -4.23230500594550
N          -0.47142532901959   -1.17993636185397    1.77604919715967
H          -0.82321058848126   -0.21471654709672    2.04483088686775
H           0.36872370437990   -1.37079800011039    2.36633696851582
H          -1.19950865222282   -1.88382080319239    1.83262365351858
H          -0.08111806738524   -1.09124379203043    0.78922676496914
