    26
        -50.45793231  Gyration_radius:  2.46120120824 Dipole_moment: 5.060
 S          -0.01245731444929    0.98357905554713   -0.23741956719137
O          -0.09900436538624    0.22497169153413   -1.46921927829621
O          -1.07865209205646    1.92834301663492   -0.02801593295453
O           0.13394548072119    0.07652965475616    0.92604772903184
O           1.35695790681733    1.74872181152070   -0.31693443756757
O           2.33025996980003   -0.62103300296495   -1.75399347344654
H           1.39996104183939   -0.30611369119674   -1.87162285905651
H           2.82608506978358    0.16653176192921   -1.51362996570758
O          -0.42260699286869   -3.31181881193116   -0.34154640121627
H          -0.55129425615370   -4.10607762060332    0.18058342779258
H          -1.13861523890684   -2.66621275771042   -0.05015220868654
O          -2.03793885387809   -1.53606607585083    0.62066078535896
H          -1.35968006830993   -0.91722663878559    0.93868454741919
H          -2.54650915623437   -1.02299275728884   -0.04373675106826
O          -2.85797042750903    0.23913104683042   -1.22334101945405
H          -2.18312616862135    0.01669977047129   -1.87442982714154
H          -2.49242578453560    1.01213523726701   -0.76419203370266
O           1.53677373324274   -1.87145883591743    0.30468652218350
H           0.79089214635401   -2.54405523283204   -0.00225457913660
H           1.97895273788971   -1.49778248880736   -0.54817109414598
H           0.97800126938342   -1.04532120483464    0.65996541630400
N           0.71437238600924    3.10022569884965    1.80401083603242
H          -0.22429549115322    2.95279658730723    1.43924217058027
H           0.80789421830239    2.55721650976137    2.65258824506782
H           1.32356461073585    2.36003435201171    0.47822109853649
H           0.82691561918451    4.07924293431723    2.03396865052165
