    26
        -50.46708063  Gyration_radius:  2.4690999083 Dipole_moment: 4.696
 S           0.76691725632359    0.81398703493822   -0.27976130911708
O           1.80411396481340   -0.19966413941417   -0.45865114754014
O          -0.51081795000385    0.02482354769440    0.21642532875662
O           1.06284440828323    1.70784187672708    0.83128393106651
O           0.42126053109844    1.48956064122553   -1.50698800288714
O           1.09183701228379   -0.82867274766331   -2.92661177433267
H           0.99739118992226    0.06810490253250   -3.26086270034645
H           1.52833504362729   -0.71071909486349   -2.05922922645910
O           1.48396702458613   -1.92390210063365    1.45359544822795
H           0.75140242941111   -2.46040440599647    1.14259501674237
H           1.72812309671335   -1.33953868004695    0.69122224497320
O          -1.82700435365128    0.25185057175986    2.59387780814143
H          -1.55574210711879    0.10822215079033    1.66872894692456
H          -2.37325734749732    1.03976954521522    2.59339452986590
O          -2.01172208489370    1.26374527468999   -2.52766690082888
H          -1.14068080451610    1.46109010180644   -2.11950355589195
H          -2.04306558251893    1.76432347075483   -3.34412244678232
O          -1.28659917534264   -1.23844670225930   -1.81581860114071
H          -0.85280898302950   -0.53551421036098   -0.58011744801430
H          -1.80460699894162   -0.50709536837868   -2.20266876009638
H          -0.44807010016573   -1.26859599759191   -2.33797560722689
N           0.85241540709277    0.20316091650065    2.88648892889542
H           1.12150861603571   -0.73650373141830    2.47925813907624
H           1.01305680272701    0.91024887394472    2.07959874795486
H          -0.17024840126760    0.21021173176344    3.07592561827815
H           1.40145108602678    0.43211656828032    3.70758279175975
