    26
        -50.47012027  Gyration_radius:  2.44745950219 Dipole_moment: 3.938
 S           1.06711787392966    1.13758367936919    0.42056018380975
O           0.81662169556922    0.14600695596463   -0.78851633516340
O           0.28340441255717    0.55475282080657    1.53750668565378
O           2.48246252038520    1.04761765154216    0.67250660298364
O           0.56716107303358    2.43364079208870    0.04293450814103
O          -1.29346018830818   -2.27033898353465   -0.17031863024342
H          -1.82219873428683   -1.65910321199987    0.36710981561203
H          -1.25009294832105   -1.86301522243135   -1.04154240557748
O           3.14877047965818   -1.29814038289019   -0.18868725680409
H           2.94711055783041   -1.22689926293660   -1.12467101209320
H           3.06297134401820   -0.37073808612131    0.15634981155532
O          -2.21477835107939    0.03011630452249    1.09301426686970
H          -1.28336802226629    0.29408440947504    1.31765398347786
H          -2.78468311522225    0.57043155279511    1.64137116529343
O          -1.40951030547096    3.02487339601757   -1.58873913059061
H          -0.69835684303041    2.90980710257890   -0.91778942839233
H          -1.03513098364361    3.58452618005954   -2.27043743999858
O          -1.63899022821917    0.38456946595232   -1.53927069248892
H          -2.08132951502754    0.30910699902014   -0.67356711903308
H          -1.67738242579241    1.34324238487283   -1.75113047402605
H          -0.12159784063392    0.26469623397543   -1.12325819433269
N           0.99198085442848   -1.90083048222333    1.19968736589632
H           0.18082299442211   -2.22528258747123    0.61815756888371
H           1.13558782553240   -2.50044048837780    2.00538992417871
H           1.87742798923808   -1.81975932272948    0.61491490137149
H           0.74943986070773   -0.90050786831944    1.49077131503695
