    26
        -50.47097689  Gyration_radius:  2.50147433371 Dipole_moment: 4.583
 S           0.01294099216929    1.20940270309898   -0.42473846030422
O          -0.79910613666048    1.66569013386463    0.69412360669518
O           0.72415769292450   -0.02136436271754   -0.04343737612880
O          -0.75848910820448    0.99266307649110   -1.63828295617539
O           1.08070391361167    2.29752308803772   -0.70187985501584
O          -0.65244698271948   -1.47864377035418    3.18348558425913
H           0.00721695912979   -0.74014339956373    3.09801109891678
H          -0.15284190213448   -2.28899422085183    3.07139900733562
O          -1.49713942722195   -1.47924445090338   -1.20026058494564
H          -1.30922646057269   -0.56667482183382   -1.52345598234699
H          -0.64683994252451   -1.92609126738992   -1.22851814744971
O           0.99084697188826    0.47394953988700    2.54100696899477
H           1.03590213487668    0.24038719598979    1.59025068118111
H           0.53127703348175    1.31889999441935    2.54938166978130
O           2.14523112681785   -0.93116968789279   -2.05710328875374
H           1.61941583981676   -0.65429040365765   -1.27292572151528
H           3.04731780658779   -1.03538367120507   -1.74951252466543
O           1.46651012241142    1.46757952154657   -3.10835203250880
H           1.83807170650419    0.57583457853925   -2.94434485594701
H           0.50734295131202    1.33804638831131   -3.11323387862291
H           1.37626976599256    2.12984138731099   -1.64506752547853
N          -2.13872046996035   -0.52868833958739    1.19493611065639
H          -3.13307886259234   -0.43927619082458    1.37666777974263
H          -1.96059881016485   -1.04653253137439    0.28817892719199
H          -1.69294446388589    0.42712118228200    1.06315497106282
H          -1.64177248085427   -1.00044167152908    2.00051679408550
