    26
        -50.47012047  Gyration_radius:  2.44739945994 Dipole_moment: 3.935
 S           0.47457910844729    1.50262613173755   -0.35643071843033
O          -0.92771662613957    1.37107406267272    0.11015247229350
O           0.91411776275057    0.01804784803691   -0.68885740184924
O           0.54271793269412    2.18994576561690   -1.62046735022985
O           1.33507082232149    1.99769015951038    0.68608143581123
O           0.20933095547361    0.33225276121965   -3.38879037479562
H           0.37714803868610    1.14565095006796   -2.84413615247627
H           0.97722357580287   -0.22328282823171   -3.23560345386366
O          -1.39521864061492   -0.32427817746290    2.01298891519622
H          -1.23556085483442    0.38913500052613    1.33974784327250
H          -1.69673271339112    0.12022659235335    2.80611379886773
O           2.54110962728710    0.65723669752799    2.60116407188694
H           2.08762930826985    1.25582493839590    1.96452149117261
H           3.47747309478771    0.83504775130510    2.50278881793287
O          -1.31170635454744   -2.26653528474535    0.02177548932720
H          -0.37142253683523   -2.44145040213081    0.13194020795480
H          -1.56765260414176   -1.76186643152674    0.81019527826970
O           1.09804512569457   -1.28900160894253    1.52642382588892
H           0.24107417094364   -1.05091734950543    1.92627225912256
H           1.03834104931931   -0.48873823434582    0.16799526443802
H           1.75487345114057   -0.74257584666510    2.01169825383351
N          -1.73904636068970   -0.25779091983829   -1.71586336926185
H          -1.01144122194606   -0.14274229740181   -2.48384406657482
H          -1.52549513355934    0.51066963263468   -1.00308041455913
H          -2.68065402535391   -0.17515913059789   -2.08441579690321
H          -1.60608695155187   -1.16108980022142   -1.19837033632286
