    26
        -50.47012039  Gyration_radius:  2.44735985862 Dipole_moment: 3.937
 S          -0.86074932666322    0.87125102902781   -1.05371287076368
O          -0.54076629430096    1.31402790709574   -2.38654224429540
O          -0.23494662172221   -0.58030811423527   -0.95798246189784
O          -0.12051249733624    1.65455593303779   -0.03396490450186
O          -2.26057926942505    0.77332248482838   -0.73262506063780
O           1.58475471192680   -0.01582104674798   -3.02020756766808
H           0.76722357875150    0.54286396093777   -2.94233823701503
H           1.26161619756070   -0.91976032619979   -3.00376092297022
O          -3.47051649739813   -0.94129708733232    0.85316057930414
H          -3.10897862251656   -0.21847414650436    0.29102378132669
H          -4.12656364942833   -1.38568300676114    0.31452209199195
O          -0.03004568048864    0.69396943905177    2.37080836826683
H          -0.48815484374395    1.26477662801033    2.98873102847829
H          -0.11458128210634    1.12634447391162    1.47997579643222
O           1.98331682338149   -0.96833065186352    1.40908051623668
H           1.38150076797590   -1.68197280633679    1.17379234128688
H           1.46472187763954   -0.38018322614115    1.98091731307723
O          -0.94722135760243   -1.62458858499911    1.28962149427489
H          -0.54524521584609   -1.01792568630040   -0.11022612953371
H          -0.71564332953238   -0.89153417748809    1.88947478611860
H          -1.92599607483082   -1.57956620033315    1.21451176620275
N           2.24383056746097    0.79864863562606   -0.60262032495986
H           2.31338399503778    0.02963657800968    0.10817087741744
H           1.32416455770271    1.30064316157057   -0.38725484022415
H           3.03648648563765    1.42943948776277   -0.54744081699824
H           2.12950100988604    0.40596529236895   -1.58511438895934
