    26
        -50.47097609  Gyration_radius:  2.50372452456 Dipole_moment: 4.583
 S           0.95657538390532   -0.76267761886653    0.35907013079450
O           0.49862814007310   -1.02004256347030    1.71522077149310
O           1.65289229239806   -2.03678688998482   -0.18108388872393
O          -0.18743794003935   -0.47592856377816   -0.52139632878062
O           1.91602086729963    0.32941241750898    0.27815241312406
O          -0.14905227098237    3.15077872676615   -1.68702699478055
H          -1.03244838212075    3.08218265570485   -2.05273053154556
H           0.36381413209405    2.39242220040340   -2.07417951986405
O          -1.47420060047098    0.69787744547670    1.78992827786913
H          -2.05411046623139    0.32588188477705    1.12002216158146
H          -0.78481192796376    0.00708544306665    1.93216281560942
O          -1.96175734456040   -2.40922445996944   -0.36878133071513
H          -1.34852358521298   -1.64485590738333   -0.45521214850603
H          -2.11714879129238   -2.72782066368649   -1.25965850431008
O           1.08747600205683    0.92874099012392   -2.36425994535300
H           1.95917266596899    0.89332074632627   -1.95911367453908
H           0.54152067646734    0.34409859622750   -1.79794228318887
O           0.01439606534427   -3.59857579766899    1.04181110815004
H          -0.82220799407835   -3.38509887951866    0.57817225898241
H           1.12677246247393   -2.79884920167160    0.20447943913014
H           0.07519081161445   -2.94646507239466    1.75456728372756
N           0.34622977261370    2.35821389851953    0.80135182086298
H           0.69168550055529    3.06510259314560    1.44218205484807
H           1.08821642971916    1.61843764181133    0.62133527794472
H          -0.47473290869087    1.83283404685389    1.21627599398216
H           0.08784098754276    2.77993636090405   -0.13334666782433
