    26
        -50.46893909  Gyration_radius:  2.40445817461 Dipole_moment: 6.281
 S          -1.62429116511456   -0.72797393051011    0.38333242519912
O          -0.56900326309549   -0.47125018474126    1.39509567702661
O          -2.89654995452650   -0.21086105243853    0.81328059754871
O          -1.23652002534151    0.18362559516312   -0.84609043621922
O          -1.58776342477361   -2.10490226137403   -0.04903234951455
O           2.15783404395755    1.12103852581545   -0.36814494035066
H           2.16506971780097    0.30433834933188    0.21396040512952
H           3.06652561348216    1.41807671106455   -0.42607953922085
O           0.81290341999760   -2.85665469012562   -0.65680788125682
H           0.75120259736574   -3.75185365453297   -0.99325085285137
H          -0.11139557272170   -2.61488938071341   -0.37218037217405
O           1.98584038650431   -1.04996155993528    1.05981026712121
H           1.06667591122646   -0.91010378399072    1.37188522586446
H           1.91134646104513   -1.83765840952516    0.50111085733518
O          -2.58358046286817    2.30787915961459    0.19916179943533
H          -2.70203851554041    2.27480697284408   -0.75310889295097
H          -2.82385169539846    1.39540926263115    0.50642023262905
O           0.84839879727679   -0.60037148111958   -2.14076114478830
H           1.44468417323847    0.02635049941704   -1.70050625815814
H           0.99007640518873   -1.47485108215672   -1.72752072674622
H          -0.48997466217118   -0.18699695381505   -1.40218246075587
N          -0.09547789617547    1.99304221235261    1.00062086705184
H           0.67838131966656    1.95054676105505    0.31851504830959
H          -0.27834527174576    0.96398425414704    1.29988638116341
H           0.14640011773784    2.57439475370562    1.79607320932542
H          -1.02654703498048    2.28483537792579    0.57651287186001
