    26
        -50.46893907  Gyration_radius:  2.40439825796 Dipole_moment: 6.281
 S           1.56194084371060   -0.92123559898958    0.16087654155088
O           1.65157687304991   -1.81010354657437   -0.97318790790215
O           0.34195986224978   -1.21084814103908    0.95513370897525
O           2.72268845668244   -0.81922558933752    1.00540716692554
O           1.35294163602689    0.54699282174330   -0.38097745582380
O          -2.09496783275481   -1.33218534447726   -0.05538182800367
H          -1.24802590150417   -1.45244424300004    0.42429670270050
H          -1.89706744303991   -1.67200943887246   -0.94054933287218
O           2.42242996328529    1.62241249546529    1.88156240035883
H           2.70136947134895    2.12333197112802    1.11134764798900
H           2.64183870533064    0.68199953058691    1.65305177542953
O          -0.58085675165119   -1.93228104146162   -2.27672077234187
H           0.27191230080942   -1.95293047755645   -1.76084867398122
H          -0.42906895490494   -2.48571766557923   -3.04420868333202
O          -2.10427120502394    1.27160167793631   -0.01270893913761
H          -2.17930992051488    0.27149254914209   -0.00404659221195
H          -3.00044025216328    1.60843090306989   -0.03811967888150
O          -0.44935063299270    0.76448279661645   -2.20938138535642
H          -0.62606549194572   -0.17951022570147   -2.39160897431088
H          -1.13479722709904    1.07244160879963   -1.59498250674232
H           0.72730550516525    0.60258696807694   -1.16153709967706
N          -0.15158235635531    1.07320485589018    1.95161351979826
H          -0.79626163598508    1.47204183424965    1.25067236281121
H          -0.54695551294059    1.12073034906631    2.88470761121626
H           0.01698175941553    0.04485065820033    1.64221699752336
H           0.82607575181130    1.49189028259007    1.92337337528194
