    26
        -50.47104611  Gyration_radius:  2.54705706428 Dipole_moment: 4.088
 S          -0.40432621004918   -0.78692229287592    0.66016585328027
O          -0.63548852276558   -0.26343178832217   -0.70072607152769
O          -1.54141429651490   -1.79192963477475    0.95908664741675
O           0.87293507245699   -1.49522476499403    0.71256357419139
O          -0.46506307830024    0.27634936243438    1.64013591560362
O          -2.17086804636901    1.86649495229594    0.40678177407690
H          -2.28179528642077    1.31011197548716   -0.36950501592670
H          -1.63036529364450    1.32094671532897    1.01807140149531
O           2.27722466191808    0.60528058900486    1.45090910811431
H           1.96639164397362   -0.29906519944115    1.22670397999085
H           1.65798107091655    0.88509952464080    2.13426641423138
O           1.03071466593011   -3.51512261297313   -0.99104930030404
H           1.25324646746542   -4.29526226305012   -0.48015750078280
H           1.07912878253755   -2.75909657872220   -0.36616082667957
O          -0.35312842457509    3.69673249934919   -0.09832850352299
H          -1.14580516239052    3.11724570410867    0.06005437590410
H          -0.20478978261503    4.16513483470657    0.72479491132405
O          -1.50022586263122   -2.74628445849552   -1.42355415184436
H          -0.63360679381487   -3.20686118669866   -1.43037133976632
H          -1.66347287294807   -2.30555527131585    0.10521853613678
H          -1.29864220082760   -1.83223140712341   -1.66820382866564
N           1.17792502991677    1.62431159237077   -0.73439652560847
H           0.67068845072338    2.52936840136022   -0.52363663457532
H           1.75129771416508    1.32527490313115    0.10771685588960
H           0.43979913076272    0.86886613300817   -0.85313303870347
H           1.75165914311336    1.70577026157758   -1.56724660977619
