    26
        -50.46600836  Gyration_radius:  2.57575005239 Dipole_moment: 5.934
 S          -0.32540845953088    0.47645108499270    0.45294812662893
O          -0.20896042374681    0.60796895732850   -1.00654178276383
O           0.26592528241387   -0.77197933355720    0.91526292056948
O           0.27390070799138    1.62262746599868    1.13042038525853
O          -1.82725048364914    0.42010229019814    0.80634359653653
O           2.29860783440894   -0.95135363709327    2.57297532207055
H           1.94241374799726   -0.90414659083054    3.46169980986231
H           1.51524573651419   -1.01335802609356    1.97525921876561
O           2.32934957270600   -0.05025212942629   -1.26674642390727
H           2.27904373311945   -1.00198623251942   -1.14739945437539
H           1.39417862453578    0.25484133347770   -1.30914426021954
O          -3.66240161233304   -1.04648844628123   -1.74302703086667
H          -4.20157550181580   -1.33109252622155   -1.00323638008042
H          -2.79083661873034   -1.48027117961395   -1.62916711598935
O          -1.13907073620161   -1.88044255656201   -1.19601991859568
H          -0.86261412232577   -2.04129753633214   -0.28676322409745
H          -0.76932272280084   -1.00093117593393   -1.38777034813762
O          -2.79827568687042    1.44862445187109   -1.30305801947096
H          -1.90540540725460    1.42372541372478   -1.67386798074336
H          -3.24448565746675    0.62772817527848   -1.61827932641768
H          -2.31613768703353    0.92173399792176    0.07331584991001
N           2.79366317493654    1.15733869531532    1.04484144874354
H           2.83283328713539    0.71923292976154    0.08562003051424
H           3.47920509732577    1.89336746386215    1.17009418860515
H           1.77730823164745    1.50912597509754    1.12679364224909
H           2.87007010901060    0.39073113563899    1.75544670595009
