    26
        -50.45475248  Gyration_radius:  2.8029163067 Dipole_moment: 8.705
 S          -0.17533985653541   -1.03714234416364    0.34424630642475
O           0.95833859782591   -1.13274674046103   -0.58139584739674
O          -0.32443943656314    0.35049987211579    0.81481529103136
O          -1.40713976131979   -1.49865207075635   -0.28014977067588
O           0.10016879442153   -1.93872612492107    1.55556013723338
O           0.49906393046980    0.21975297514701   -2.78508584940519
H           0.58281336658825   -0.41440982403589   -3.49885752786200
H           0.77760829854208   -0.26200661185053   -1.96705510767120
O          -4.09430246441777    2.18093661076679   -1.70211546413927
H          -4.87671834578735    1.64741995699059   -1.54636992101850
H          -4.27410640810449    3.06398459730656   -1.37284049522978
O           3.45786962169239   -1.29269554827063    0.26590763526781
H           2.56226808013288   -1.17112019612686   -0.11999177453300
H           3.74069456549209   -2.16998215264060    0.00265221995576
O           1.21535663180052    1.32760086184765    2.72531635718711
H           0.65971693934613    1.04338050347252    1.96527574863148
H           0.61227576024539    1.45179392180192    3.46004492064074
O           2.24220862721336   -1.14818956845050    2.64762542935775
H           2.04144112010739   -0.19791223297826    2.79081246294431
H           0.96881347595199   -1.65234630999274    2.03472156309949
H           2.86269764427129   -1.17380876619459    1.88683923759716
N          -1.66110712556610    0.79937086554806   -1.35924715217641
H          -2.50442981727100    1.34731021822253   -1.56686655223983
H          -1.84334728196590   -0.21607475584814   -1.09592615908638
H          -0.95456935962672    0.78093190203443   -2.12923945249725
H          -1.16583559694206    1.09283096145055   -0.48867625544534
