    26
        -50.47004707  Gyration_radius:  2.43966718982 Dipole_moment: 4.084
 S           0.32721275267260    0.61513836935502    0.77479623808812
O          -0.47451283822845   -0.42309182646306    0.10813514003697
O          -0.34565404719489    1.89498186048199    0.74602334339969
O           0.52710310927287    0.16572059652251    2.24209203839848
O           1.67078867035425    0.66809290027435    0.19748123959097
O           0.76524098544405    2.23367994674445   -1.80525332645649
H           0.09602957826112    2.74386050129321   -1.33955087543184
H           1.28322526208984    1.82405976140868   -1.09166457196359
O          -2.79481251831440    0.95041466399221    0.86465652322504
H          -1.97838024855718    1.48524198216047    0.76291572112031
H          -2.63184208092632    0.16911570571143    0.32771740514801
O           0.59632521437226   -2.82814204354286    0.08856356654720
H           0.14695667456825   -1.96348136957892    0.23558483721658
H          -0.09989975501373   -3.47576536355864   -0.03096356842000
O          -0.11307446620105   -0.19496751296327   -2.54415827261698
H          -0.48526101869711   -0.31624914310848   -1.64831956022707
H           0.13420673901606    0.75326931239919   -2.56742344186315
O          -1.86876802084280    0.24722724597145    3.23107436073584
H          -0.37109269209870    0.13908209242434    2.67743474428512
H          -1.93860727352907    1.01546892683393    3.80195624011707
H          -2.37642249015758    0.46830408401723    2.40832540801863
N           2.02561394050869   -1.25713189316198   -1.51202013761272
H           1.24710226696713   -0.91793914137216   -2.16649726540123
H           1.67615871925078   -2.10494717585974   -1.01709812868869
H           2.91778485963801   -1.40028809888570   -1.97078885830970
H           2.06457868716147   -0.49165438097042   -0.77301879889119
