    26
        -50.47297959  Gyration_radius:  2.50430196545 Dipole_moment: 2.734
 S          -0.05442448909298   -0.30673347658836   -1.05319572346067
O          -0.30215174191471   -0.71637285644515   -2.51929462753480
O           0.58180446480080   -1.44606068073008   -0.40977239514637
O           0.82808605697609    0.86569574928061   -1.03061833023243
O          -1.34156367842976    0.00593274825085   -0.43340450885023
O          -0.26389643586961   -2.41917256356151    1.89739522217014
H          -0.96473439656349   -3.06268067750561    1.78620567423766
H          -0.01635986991164   -2.12693404317567    0.99023694811316
O           2.54092114711623   -1.59789520468693    1.42376554355515
H           2.06022661350447   -1.67848717077738    0.57756166516190
H           2.03344434791105   -2.13762586465161    2.03962539282797
O          -0.87286367158197    0.20995510707983    2.17038264885836
H          -1.21919672086176    0.21143973076913    1.25169521864438
H          -0.75457991347839   -0.73778893369065    2.37148571615853
O          -1.29024368745652    2.51307365723382   -1.28533892460774
H          -1.57992558696702    1.70652806602911   -0.81873533300270
H          -0.32727438783026    2.41941740326201   -1.29266783814042
O          -1.69493374987458    1.21935853838390   -3.54363441168119
H          -2.61819516963607    0.95885970924250   -3.56482608272900
H          -1.60617505652686    1.87837630623757   -2.80897103180302
H          -0.79619224050857    0.02109757667736   -2.97616870467153
N           1.55503375670631    0.87058232588761    1.46656113489630
H           2.10912289161105   -0.01871782326722    1.58489191678895
H           2.03334068771644    1.67912470900229    1.84818195226484
H           1.37168862979167    0.97317684484072    0.42381267196154
H           0.58904221036464    0.71585082290499    1.90482620621998
