    26
        -50.46220854  Gyration_radius:  2.4228501405 Dipole_moment: 2.977
 S          -1.19153787131309   -0.39224571043989   -0.04766807814643
O          -0.47693043748670   -0.23658695236258    1.22779777738492
O          -1.47615431470620    0.90858685907304   -0.63827227028399
O          -0.42856149462819   -1.24233615123488   -0.95111025789063
O          -2.54886755909491   -1.06574407044744    0.25320610529298
O           2.42801060197364    1.20840971078471   -0.30922077332141
H           2.47133193978359    0.23522973972263   -0.12719473420332
H           1.86902607147412    1.28603446771511   -1.12266318145725
O           1.91779971307328   -1.31591786732479    0.26493955906395
H           1.10896876425290   -1.36841834460059   -0.28926379412254
H           1.58183953522995   -1.22958557805063    1.16229015811405
O           0.61981923195890    1.12957761374145   -2.24084873716120
H          -0.22017583729707    1.08058114000608   -1.73859602504945
H           0.70097565859509    0.26578367913828   -2.65293733799070
O          -0.77328164366139    3.33482621776788    0.08041953545387
H          -0.38742187287900    3.68802191051702   -0.72525739810344
H          -1.25058788805805    2.51765399969717   -0.18521782076545
O           0.83208952369538    1.89112721300917    1.45428306766359
H           0.23338973992440    2.59145025439989    1.01812973662223
H           0.26127125326229    1.02662310716092    1.46865621878746
H           1.61750286933083    1.66038514462766    0.71716771385033
N          -1.35454295198319   -3.33125757465114    0.73217087082352
H          -1.68460377921598   -4.26771888679160    0.53892359842508
H          -0.83609154964646   -3.34412205026005    1.60038765148367
H          -0.73003118555980   -3.03847341963873   -0.01373038260783
H          -2.28323650701741   -1.99188446155118    0.52360877813996
