    26
        -50.47297960  Gyration_radius:  2.50438309162 Dipole_moment: 2.737
 S           0.06000854725144    0.01467847208670   -1.09611737131090
O          -0.01501934606011   -0.02886112495419   -2.63601410960242
O          -1.19993278605294   -0.49255082300159   -0.55409104994842
O           1.18515154957168   -0.81659977850017   -0.65214657884165
O           0.27099553668896    1.40792367334041   -0.73402154448932
O          -1.16648333682333    0.08007553702503    2.03661582280098
H          -1.33235403109879   -0.24151538079815    1.12393876732396
H          -1.32290901696816    1.04156146029418    1.97521963340308
O          -1.18499678402660    2.62711926448447    1.10417185041360
H          -0.71557568479389    2.20778346017816    0.34695085979875
H          -1.99124119230675    2.99780687613868    0.74331310670075
O          -0.38157750346724   -3.00927443857919   -0.65902353895408
H          -0.94082885119588   -2.23243180584419   -0.46978752477012
H           0.51326846825484   -2.64770695715671   -0.59008110006669
O           1.77406550397033    2.54949481835135    1.17933505716925
H           1.04812808641841    3.05425135017303    1.56194034872239
H           1.44666872780390    2.28291607634460    0.29878414226918
O          -0.68276086173557   -2.46804189636636   -3.21893709353309
H          -0.56685587199093   -2.87741416643348   -2.32399553838656
H          -1.62267801387714   -2.49428628794921   -3.41003667466166
H          -0.22278740447218   -0.96389901480821   -2.91775916993719
N           1.43464566132360   -0.01112956906848    1.80826298756683
H           1.72272401288059    1.00018676520140    1.73022004251377
H           1.47101137228895   -0.41019904265558    0.82292691426793
H           2.02120813493053   -0.53297692950022    2.44994726912761
H           0.39812508347997   -0.03691055799140    2.08038446241770
