    26
        -50.47273117  Gyration_radius:  2.43976954631 Dipole_moment: 2.886
 S          -0.65635444058181    0.54320781901131   -0.43563318719989
O          -0.58966565723239    1.25847753652463   -1.81036404071203
O           0.48932304692070   -0.35793903284790   -0.34884669835162
O          -0.58758655124166    1.59982546282889    0.57094889511166
O          -1.90398277072745   -0.20335496157344   -0.34179950618865
O          -2.09521338170169   -1.97539837187324   -2.29985797281496
H          -2.10462400138491   -1.36548994700796   -1.53052881069452
H          -2.92904904820159   -1.84346603295232   -2.75401557199813
O           2.51733905957772    0.16629093679392    1.29775850426726
H           1.95144457699381   -0.21183679938829    0.59491262553489
H           2.62802682659781    1.09209265479352    1.01114161623404
O          -1.08268303712457   -1.71871340099279    1.67799595531782
H          -0.49953057176199   -2.31259357946297    1.19804275636916
H          -1.53455626907314   -1.19442548836151    0.98149056748942
O           1.88130657805667    2.54942099464259    0.15963796168353
H           0.93817419448475    2.33157383181872    0.28902852790135
H           1.97629426633040    2.76442251618184   -0.76944922685362
O           0.23609073789753   -0.85094028714246   -3.00046391570700
H          -0.57290612701891   -1.40372728446996   -2.96415104591658
H          -0.28696053121158    0.54496950709804   -2.45046916747420
H           0.68698829067097   -1.01254195460825   -2.15851036812368
N           0.30936775197636    0.32262582862310    2.66536192798955
H           1.32048581278140    0.22346744565433    2.31341011220131
H          -0.20536316036424   -0.57946787308931    2.48851906874437
H           0.24219877625010    0.63232334973842    3.62843244387530
H          -0.12856436094369    1.00119714007933    1.98740854932065
