    26
        -50.47133217  Gyration_radius:  2.51729338064 Dipole_moment: 3.519
 S           0.12992861853318   -0.44793304272491   -0.78586210161585
O           0.38590847235754   -0.41286715726865   -2.31166745253184
O           0.98445064973133   -1.47211036187595   -0.19968720422128
O           0.46435021382054    0.87809186775046   -0.25111573171179
O          -1.28078940774027   -0.74681793397507   -0.60146084055456
O           0.61852148292806   -1.19415058511488    2.41221924195481
H           0.80937756266946   -1.27643649092709    1.45348264917510
H           1.02871075627596   -1.95422838099423    2.82888232807491
O          -1.96944404116859   -0.66262430127557    2.00937534850337
H          -1.09720607027235   -0.90391246100146    2.38471144750747
H          -1.90456203085214   -0.94024318593774    1.07625937234677
O           3.54398624316941   -1.21749555517708   -0.83188750974547
H           3.76768062584952   -1.97500487259742   -1.37527547898816
H           2.62907966790344   -1.37302001742296   -0.51165645606218
O          -2.98823776016115    1.20521363719594   -1.09545937637069
H          -3.85728088658949    0.81903072704794   -1.21666545680156
H          -2.35643437115741    0.45034442890821   -1.08042729628989
O           2.52120737558107    0.96771165990441   -2.00337909124686
H           2.04457271847201    1.32869906301708   -1.24148514977074
H           3.11878595903728    0.28149369370434   -1.63615144946036
H           1.23349970613058    0.11651696815446   -2.39397650498701
N          -1.57376562809535    1.74667927284233    1.10054027891243
H          -1.49451010831976    2.58465790561714    1.66464990281786
H          -1.80927569100200    0.86532502305124    1.66374615363417
H          -2.28468703222275    1.82653554787839    0.34306061663213
H          -0.66386703485767    1.50654455122266    0.59922977079235
