    26
        -50.46586025  Gyration_radius:  2.59186531902 Dipole_moment: 7.215
 S          -0.80965165534685   -0.63611097862906   -0.57833329840820
O          -1.82370852191595   -1.28147577324364   -1.36700200527984
O          -0.94605287945538    0.81872181965615   -0.53349030872023
O          -0.68586552203758   -1.19207520092864    0.76986839160277
O           0.59584060036299   -0.91907296498644   -1.23603830669317
O          -2.10848855256043   -0.67564332473401   -3.91202672027104
H          -2.14957344398578   -0.90940394457639   -2.95693586044135
H          -2.05137814588615   -1.50918156692946   -4.38184920851548
O           1.86210467374144   -1.57667628335086    1.15174223727293
H           2.20523330023342   -1.49098776296191    0.25735813287113
H           0.88230967275658   -1.60270604674085    1.01916239956231
O          -0.97453785985757   -0.02951780126927    3.08298062229992
H          -1.28823469669624   -0.72872511215606    3.65907501675119
H          -1.00855408878781   -0.40803120123092    2.16890091054678
O           0.87006658821951    2.26527942728271    0.56464353495998
H           0.19396460203509    1.68502992804315    0.11122643482648
H           0.41418876695025    3.09214668536686    0.73139749386404
O          -0.01572030928091    0.76695784503697   -3.06855922569204
H          -0.72402133001814    0.33571411744911   -3.59312485707626
H          -0.47734966784530    1.19939505338694   -2.33424513223623
H           0.52696723710010   -0.34738535363453   -2.04944066908535
N           1.52917311995352    0.64123215006550    2.52628050779422
H           2.20809863714980    0.94334952344001    3.21521541003116
H           0.59028936518165    0.42393492895075    2.95120957246375
H           1.35222127628127    1.37929295973806    1.78316512427890
H           1.83267884366349   -0.24406112309687    2.01881982339079
