    26
        -50.46949754  Gyration_radius:  2.56232314918 Dipole_moment: 5.891
 S          -0.05019215671498   -0.41159124956912   -0.37585091553626
O           0.07870585934939   -0.73147803635324   -1.77402288623503
O          -0.94439463414624    0.74104390810826   -0.15111150780887
O          -0.46131422979298   -1.53433333483653    0.46028297800437
O           1.33983147748434    0.00262272390303    0.18634627477855
O           2.36243977904260   -0.53082238783155   -3.12163247802867
H           1.48036643352215   -0.68329429206434   -2.72218862068034
H           2.86188888816317   -1.33579775085520   -2.97923321118925
O           0.58418386255049   -0.74243579622349    2.74718000546645
H           0.29275859291135   -1.21867829661586    1.93687800131378
H           1.39980568669692   -0.30877109162067    2.48137571435635
O          -2.79554261422850   -1.77933849725389    1.68346492007916
H          -2.76020043971939   -2.59333080488657    2.18911390240564
H          -2.01133788161586   -1.79790004446127    1.09007797238037
O          -0.22085769165489    2.03390574607448   -2.37239997173494
H          -0.61586304746236    1.66612179412800   -1.56049739312542
H          -0.27563656289955    1.32141774180902   -3.01589188854913
O           2.26802943200307    1.62305062680411   -1.50569595826012
H           1.43285809185140    2.00564633896097   -1.86161767589608
H           1.75439381158843    0.68936861256058   -0.46044840040421
H           2.55430084999026    0.98104106728480   -2.18603175828597
N          -1.67341646136637    0.55187423051176    2.29672510585294
H          -0.77842255246207    0.19706110787086    2.72424508399235
H          -2.33435116106181   -0.25900855912636    2.25434441172819
H          -2.06285735299458    1.35821682718892    2.77165382923447
H          -1.42517596902306    0.75540942648722    1.26493447613841
