    26
        -50.47012029  Gyration_radius:  2.44715248427 Dipole_moment: 3.933
 S           0.97649270844328   -0.87231404840103    0.94700768657689
O           1.11435505311624   -2.29894092628650    1.09005549298293
O           2.11622957728970   -0.07934591983472    1.32715865889028
O           0.72280423933076   -0.65289098975989   -0.60072308923916
O          -0.26712625623438   -0.38420464610207    1.59250117532188
O          -0.21413409850911   -3.28162249676213   -0.89962903831087
H           0.27835053557156   -2.94086237041000   -1.65002707575064
H           0.35084403649343   -3.06586136736600   -0.11175430030749
O          -2.09446419885996    0.84066106261255   -1.32826478061386
H          -1.30102431429537    1.00387039366625   -1.84855433994035
H          -1.99592159267535    1.39613379635877   -0.53868401580904
O           2.97322514416434    2.17392914460474    0.27451976428030
H           2.70274423260045    1.37115708373840    0.77621184004550
H           3.87004568599267    2.00653103215254   -0.01852781946768
O          -1.06687934610684    2.00385183253516    0.98281247960598
H          -0.74345300224944    1.11806735394437    1.29659866585982
H          -1.03111480756556    2.58530768878128    1.74323845961779
O           0.70819226685307    1.88283135924540   -1.07073476731216
H           1.59965642641028    2.13556726440425   -0.74376251236167
H           0.76300171843115    0.32819063994840   -0.80596242711432
H           0.09880959454800    2.17548861007433   -0.36792013206663
N          -1.94405337654502   -1.50210620172550   -0.01439203266223
H          -2.81759140490495   -1.87282358197201    0.34446752662848
H          -1.36311248413565   -2.26246491558129   -0.48001742221332
H          -2.10702121212853   -0.69512117054683   -0.66522170547837
H          -1.32885511513660   -1.11302862735233    0.76960371869155
