    26
        -50.46972842  Gyration_radius:  2.47797145053 Dipole_moment: 4.091
 S          -0.17867996905429    0.23687781999999    0.85981259845636
O           0.80657923606470    0.04567162920460    1.89991364529651
O          -0.04237917707276   -0.80636649126776   -0.18325851718202
O          -1.60215482694324    0.09898670622290    1.45498079371816
O          -0.14926036454183    1.55805404646981    0.25388917098427
O           1.63628797348440    1.89951424830049   -1.74273604938216
H           2.26487959174372    1.23648518106178   -1.39243978411159
H           1.08280721055299    2.11231396794105   -0.96847856536162
O           2.57334106256647   -0.17949472286562   -0.31344360341989
H           2.74324933487845    0.05530760743532    0.60334304499480
H           1.67894914927740   -0.56161022548813   -0.30299380112580
O           0.83755741161038   -2.58732044625916    1.86235158838608
H           0.75388306384377   -2.69905455029706    0.91099872389299
H           0.99138279403004   -1.62597118694606    1.98867151788116
O          -2.17561353674914    1.96678097045390   -1.38005848393335
H          -2.35065751279457    2.90782412956019   -1.43249243469187
H          -1.55442503780340    1.84614065221307   -0.62613776759079
O          -1.62476301530239   -2.17418524296406    2.70516045116111
H          -0.73048989709260   -2.50626779141776    2.43684914878104
H          -1.57248253249399   -1.99729113605050    3.64688170695103
H          -1.68107671750227   -0.78487846285979    1.91396833841966
N          -0.34989006242843    0.37584521170104   -2.48387411496299
H          -0.38804227475234   -0.16638074697410   -3.33932916170775
H          -0.29239301222328   -0.23810738401705   -1.61578163172930
H           0.51342198106768    1.00813282929498   -2.41137342478887
H          -1.19003087233099    0.97899337756235   -2.34442339904253
