    26
        -50.46161908  Gyration_radius:  2.45391056632 Dipole_moment: 8.351
 S          -0.11314596635667   -0.37427382746122    0.67319279493727
O           0.47490756872308    0.19024189591781   -0.65338977787441
O          -0.14079211212238    0.73659131907022    1.62126145430855
O          -1.42632982312968   -0.92444766630293    0.42630263667821
O           0.87069196043775   -1.38728037908531    1.07574177219318
O          -2.55825713862668   -0.95216631976611   -2.06344002293655
H          -1.99323765131507   -1.62860846649536   -2.44956825405587
H          -2.39334283867031   -1.01845157179269   -1.10825646872069
O           2.18817937515442    1.81536043112191    2.01719049307529
H           2.30867023608033    1.84301231713155    2.96827554641610
H           1.25115555461062    1.51626591328447    1.87612134190282
O          -0.29072290813894   -2.75571842446193   -1.25564661861615
H           0.37233020965787   -3.26626053119400   -0.78914450890174
H          -0.68325233032367   -2.17913351990422   -0.58409942980199
O          -2.39657944039323    1.78314184463510    0.60430692204411
H          -1.59148215233650    1.53101750684134    1.09276432623257
H          -2.98735064194658    1.03051235330585    0.69285367953624
O          -1.35393033076580    1.41928192913946   -1.83424987230059
H          -1.82688141531137    1.76909432156939   -1.04586321242964
H          -0.24720926089590    0.73306089152778   -1.18643606061749
H          -1.88628980205245    0.64740559325684   -2.13673129266983
N           2.93739785888052   -0.10955446048796    0.40035888813222
H           2.85411846792016    0.71682673173640    1.06102887601619
H           2.12059085397973   -0.78656729779824    0.72552034905609
H           2.65466718516984    0.19095779874011   -0.53303290722626
H           3.85609456176576   -0.54030838256239    0.40493934563781
