    26
        -50.46161914  Gyration_radius:  2.45397300353 Dipole_moment: 8.350
 S          -0.37476427286304    0.68212290690393   -0.01318286874571
O          -1.75121222431107    0.26102985371929    0.23522157886563
O           0.53201970338535   -0.52878571307725    0.35525114010608
O          -0.14985448490270    1.05518301245576   -1.39097893957912
O           0.04026080722399    1.71861070263743    0.94056153557573
O          -1.94341438358059   -1.09357808929712   -2.07691657853941
H          -1.73634056615427   -0.39318813667858   -2.70133808109014
H          -2.04244965392941   -0.64446885505502   -1.21737752427438
O           1.67116156320848   -0.22807472717210   -2.97784032726700
H           2.46583833287777    0.11333028277983   -2.55618591915015
H           0.95784430127218    0.33798166613530   -2.63910863980711
O          -2.17184762061689   -0.50972744996620    2.67935421123162
H          -2.08980905751720   -0.30338054855885    1.71085845208578
H          -2.94097587662882   -0.02294108080270    2.98152064635640
O           2.44226399085203    1.64823191558955   -0.75704495093680
H           2.46997307582917    2.30716946897085   -0.06209602878633
H           1.50263059019465    1.53934053006315   -0.96369114863625
O           0.46542171219236   -2.13883866168446   -1.55600149247023
H           0.52979336993865   -1.24894292057627   -0.40741144728684
H          -0.46551028737411   -1.99175279625446   -1.83760494814484
H           1.01548389509343   -1.63508928476437   -2.19973757508658
N           0.33699176408880    0.21042978574560    2.93988188768760
H           0.75332213191680    0.54452899162405    3.80280584008739
H          -0.66346548026107   -0.12463018739515    3.05469086270541
H           0.26390077891884    0.98258157596213    2.14632547240125
H           0.88273791121145   -0.53714224134822    2.51004484273540
