    26
        -50.46564017  Gyration_radius:  2.55277799279 Dipole_moment: 5.951
 S           0.00606163796046    0.60813420518575    0.65601251716963
O          -0.07567953424231    0.46798271065127    2.08186105129188
O           0.23257404581992   -0.68813613228835   -0.01646443244810
O          -1.35344714995872    1.13924953958195    0.09799390814256
O           0.98924658107728    1.58379513212181    0.19662664589746
O           3.21683353805146    0.97166170995639   -1.08790902080173
H           3.67032682116980    1.79474228822656   -1.27825235995395
H           2.49722134973799    1.20189858656640   -0.45717618903987
O           0.31135022247257   -2.88110525639321    1.54629361930914
H           1.08159153881312   -2.72543552152744    2.09596487942237
H           0.27956118586862   -2.13686878521215    0.91479720066346
O          -1.70409064266444   -1.52252916880651    2.77700488187692
H          -1.15650637617836   -2.25768535036274    2.44308057286812
H          -1.10582138873985   -0.74918566340112    2.74155524502679
O          -0.09076798578503    2.26505616968405   -2.10494830736568
H          -1.03423877982123    2.26015608424717   -1.92293304676824
H           0.32508839176597    2.21830396996106   -1.21345318649193
O          -3.10962328169331   -0.57204898728185    0.82458840777382
H          -3.85822025513208   -0.13005822626998    1.23040974429553
H          -2.04999567763613    0.46194417304330    0.36228496624007
H          -2.63748716390630   -1.04815171494905    1.57380577449526
N           1.11493266154962   -0.07443684908597   -2.33686569970751
H           1.06818858735484   -0.74999836577700   -3.09107048962971
H           2.09378780746305    0.20998651295051   -2.10064884187688
H           0.57468860382254    0.80994017634549   -2.52472919172533
H           0.71442525283647   -0.45721124717869   -1.40782864865391
