    26
        -50.46564019  Gyration_radius:  2.55252663518 Dipole_moment: 5.950
 S          -0.05968048654202    0.46629351354129   -0.76159141824052
O           0.54023201529449   -0.40006392139543    0.27442869820540
O          -1.56898680384995    0.06614450477156   -0.82194184030349
O          -0.07296214573078    1.85160665449069   -0.30300475624050
O           0.54711389010430    0.26793234856158   -2.04681370002793
O           0.74756820277602   -2.32087078264284   -2.64269850967324
H           0.74123143937176   -1.34254395627827   -2.63575455065161
H           1.41266048944897   -2.55558888335804   -1.96867836054426
O           2.45257040198002   -2.11975928399335   -0.52738893010830
H           3.15044421926808   -1.53735147771062   -0.83303671674910
H           1.75842926466899   -1.53658539474309   -0.16443235290274
O          -2.18190376058217    1.78656762320548    1.27064703485250
H          -2.78875894467108    1.19917023407253    0.81240116288059
H          -1.48633652100841    1.98152640613571    0.60129113796348
O           1.34990306811378    2.76898014270742    1.72727482835631
H           0.96143251188659    2.49282847928017    0.86622572263959
H           1.14822617619587    3.70201694080821    1.81745974359674
O          -1.60085957272230   -2.38224217279721   -1.56005267455100
H          -0.68704187012615   -2.48777406152002   -1.96583824601355
H          -1.59247038945781   -0.90312309512300   -1.09336224604022
H          -2.22009853690511   -2.50500179403213   -2.28253963623936
N          -0.11513077891740    0.68635049391351    2.49471288589304
H          -0.08869268576548    0.14420824446375    3.35072489850520
H          -1.07147903604185    1.05780141095837    2.25646550309457
H           0.53608360543012    1.50521016234168    2.50710695391012
H           0.18850624780167    0.11426763433801    1.62839536838288
