    26
        -50.47186320  Gyration_radius:  2.45043262353 Dipole_moment: 2.265
 S           0.42540350069192   -0.45422765875869   -0.56857438997094
O           1.30247828158262   -0.05826247350333   -1.78374345836568
O           1.32480246148014   -0.76052196775710    0.51630979041246
O          -0.41557164120404    0.72305336078384   -0.25392511473705
O          -0.42223891541433   -1.58323038485318   -0.93303144624111
O          -2.29806342432886   -0.12148531783007   -2.09102817367475
H          -2.10936630261738    0.63379326225094   -1.52262993588233
H          -1.79164336531635   -0.85050742902251   -1.67979829540754
O           1.73181538913350    0.80573771302142    2.63687214059063
H           1.88528880908589    0.08004872843446    2.00274734764005
H           1.82710627570601    1.59885337996815    2.07372570157157
O          -0.77928791133984   -2.29261897054668    1.60841346617069
H          -0.75262121772479   -2.14975924213599    0.63787502953079
H           0.09657631127550   -2.62470259256133    1.82334269945439
O           1.64352127814688    2.32102005117836    0.38998943834849
H           2.34126301339039    2.07904572871374   -0.22195544816813
H           0.85267101893686    1.84064147398494    0.08383350326635
O          -0.30556299504644    0.07893933213927   -3.80566107231450
H           0.72576642457691    0.03871165265737   -2.59852982054261
H          -0.26641652099929   -0.75178569594774   -4.28453473284938
H          -1.16764546086800    0.07662366845305   -3.31629148870049
N          -0.80053666854375    0.28553894185286    2.29172891769976
H          -0.80678267583790    0.61020915349242    1.28692884729234
H           0.18310246479288    0.54016146605669    2.64350324544492
H          -1.54477717251845    0.69846726604381    2.84296419911061
H          -0.87928096701158   -0.76374342611779    2.22146907032778
