    26
        -50.47216063  Gyration_radius:  2.41251324428 Dipole_moment: 6.328
 S          -0.19015338860961    1.57156850708850    0.73870200876057
O           0.17010311183595    3.08067701843908    0.68559387657637
O           1.08808300761358    0.83903887128337    0.57752592059395
O          -0.77125838781307    1.27253091909670    2.02638598645315
O          -1.08116996982912    1.27015279486703   -0.36950064679625
O           1.74558050825314    0.22856465068282   -1.87029986493597
H           2.70232247091856    0.17050059428238   -1.88825099542757
H           1.49947213497702    0.49321657383520   -0.94952104505232
O           0.40610508162428   -2.15158040749463   -1.36935010517151
H           0.84058788217920   -1.37588978292459   -1.77021499139143
H          -0.55296678386832   -1.91640673846421   -1.32163808050935
O          -1.67796301482092   -1.15798795712067    2.14933772604920
H          -2.20144549591548   -1.25533630508043    2.94647819747452
H          -1.41524108592644   -0.20012607393526    2.11352001418622
O          -1.97572661493524   -1.22068687689676   -0.69913807493542
H          -1.75191256863147   -0.26903898514492   -0.69875757118913
H          -2.17255920719790   -1.42190787601800    0.22343094428535
O           0.43126014362026    2.76363326428797   -1.92343709571594
H          -0.37001595605603    2.26044432762094   -1.69774726888705
H           0.39019123798167    3.20783417364602   -0.26381121892159
H           1.05590103628613    2.08860861617378   -2.22346840329348
N           0.78233416483739   -1.68343224359408    1.14363998591624
H           1.50356776493917   -2.17714841776569    1.65672782817412
H          -0.13635874369379   -1.73925506332517    1.62215770053058
H           1.00168017463438   -0.64841141086486    1.04679240663596
H           0.67958251760837   -2.02956217262071    0.11484275661950
