    26
        -50.47251584  Gyration_radius:  2.46975006074 Dipole_moment: 2.668
 S          -0.85796817191500   -0.15576410398723    0.03078829298172
O           0.26689770551641    0.51383824135272   -0.66155262889605
O          -0.52496000417136   -1.51440335160177    0.38263282140836
O          -1.26320263250938    0.62693274293689    1.19219523400922
O          -2.02471197656337   -0.19648872782375   -0.98755817294983
O           0.79826949987999   -1.39932259606873   -2.46830294551380
H          -0.05661505206419   -1.73055296678550   -2.74924056116371
H           0.61117890291407   -0.63371013988323   -1.89323219704287
O           1.75719641709692   -2.72245866653210   -0.30816014310888
H           0.84908652046805   -2.60811051253451    0.03171899011216
H           1.66752442582058   -2.46290645362044   -1.24584562411904
O           0.52780636642003   -0.45258952410926    2.82050182581293
H          -0.17457489979735    0.04436514653118    2.34679042478344
H           0.19489101297499   -1.35327912149173    2.86268894398742
O          -2.03999894476854    3.09947732030975    0.66003545537478
H          -1.71727493357767    2.22273109798081    0.96283244161927
H          -2.91189414228864    3.20845605511003    1.04341218150565
O          -1.59194563940183    2.18839584316422   -1.80680409584555
H          -1.83229907520148    2.72122866027072   -1.01656129020567
H          -0.65173839246618    1.99275084951974   -1.70062635903685
H          -2.02556421996203    0.72117757230386   -1.40057867200058
N           2.24359971062823   -0.40907301843544    0.79121338646251
H           2.25651054368846   -1.40580330365118    0.38796406442703
H           1.74087809667333   -0.43101162017122    1.72005217966514
H           3.16354562307500    0.01301789132531    0.85286297814186
H           1.59536325955593    0.12310267589516    0.15277348960620
