    26
        -50.46317521  Gyration_radius:  2.47272607291 Dipole_moment: 5.497
 S          -0.55717565608031    0.71108166588827    0.78747558073367
O           0.82474533416603    1.41073759876244    1.08182849781611
O          -0.95458556487644    0.13423455200957    2.06487120777845
O          -1.46889468284296    1.68736692208754    0.25894452414415
O          -0.24661119194012   -0.35225307549080   -0.18072529421698
O          -0.81740983150451    2.56977140190533   -2.16371909408449
H          -1.20643665743662    2.43837226003801   -1.27497308352753
H          -1.02649239938070    1.73918138513424   -2.62877770638256
O          -1.58065038255799   -0.03001947779896   -2.47785312980405
H          -2.48865460164202    0.05823423209147   -2.18117408587970
H          -1.04951776511778   -0.15871212757968   -1.66658236540960
O           2.30574767054749   -0.85137923077126    0.96240474184208
H           2.10829253100704   -1.00145746665793    0.03247078361115
H           1.94394981107784    0.03667135963745    1.14274129393895
O          -0.93071687974383   -2.89698910663775   -0.00573308682954
H          -0.77832394878364   -1.93815021894127   -0.16202308603704
H          -0.81921443059947   -3.32795561878823   -0.85424542676185
O           1.55649883497343    2.38924759017054   -1.15887395481336
H           1.88748738911570    3.28457320149402   -1.06281061628696
H           1.11512357516953    1.82037115079109    0.20506804567467
H           0.69000156304126    2.46976580551660   -1.66341414353692
N           0.30800138086510   -2.07355239052050    2.21720680791382
H          -0.28595350824388   -1.16015914501501    2.25510047375211
H          -0.15548976939885   -2.68865430319669    1.52177487658348
H           1.23253882927128   -1.75823737327155    1.82389434145405
H           0.39374033090658   -2.51208960085445    3.12712389833276
