    26
        -50.46317521  Gyration_radius:  2.47267665141 Dipole_moment: 5.494
 S           0.18883399399105   -0.77938972149602    0.89056271729521
O           1.18070626727560   -0.43361927576159    1.90007264024816
O          -0.18746121115755    0.41129500745389    0.11270470945459
O           0.96371062303454   -1.70229386808320   -0.12608815374223
O          -0.95285584881825   -1.49419969769201    1.38981741121373
O          -2.83529678015520   -1.92857943067809   -0.43764715980385
H          -3.11932583294692   -0.99891592316969   -0.50776510964950
H          -2.26910526134844   -1.93509659018383    0.36100678669463
O          -2.83979176858894    0.75742015078589    0.03735665187655
H          -3.08016299443387    0.73077563782983    0.96568943853128
H          -1.86877807304143    0.64194627347721    0.01291892358444
O           2.17986478851799    0.31733000235462   -1.45520076913022
H           1.92405109791861   -0.53248616990263   -1.04970428042991
H           1.35039355375149    0.68284895519678   -1.77873479996236
O           0.23670952369944    2.93174096696213    0.77781619723752
H          -0.05098564821324    2.01490543681292    0.56903192178280
H          -0.30054155026206    3.51103321055785    0.23568678858392
O          -0.75163488699142   -2.28170297122705   -1.92473308045346
H           0.28792733024562   -1.95565945763906   -0.83320069278880
H          -0.72566831656496   -3.21369587442544   -2.15085424222765
H          -1.62924268697697   -2.13788936500909   -1.45465723908486
N           2.49634396950216    1.50566011586559    0.89993423129191
H           3.39843569022172    1.72899977845933    1.30491098936546
H           2.56556003730866    1.15905032760122   -0.09207760526819
H           1.99861965039171    0.69189371530219    1.42770106874621
H           1.83969436364008    2.30862875661053    0.92545265663892
