    26
        -50.46982696  Gyration_radius:  2.47137876847 Dipole_moment: 4.713
 S          -0.76123902281118   -1.39039161360688   -0.72984622250448
O           0.52787263101608   -0.94073952401487   -1.26174034114115
O          -0.68175350770856   -2.69704553726245   -0.13125079441257
O          -1.25670861400221   -0.38338231486835    0.23732758685731
O          -1.78305391146244   -1.43241670972734   -1.89240852266117
O           0.60392998726461    1.43835614158299   -2.24492634585373
H           1.15206696950853    1.44402869650797   -3.03060230647940
H           0.64102181799051    0.50966691701969   -1.88574072012438
O           1.81186158372724   -2.41706961359717    0.61294401495757
H           1.92865926412821   -1.83147776855460   -0.14903650395986
H           0.98176466666675   -2.88376248199004    0.38187435535971
O           1.26125384622953    1.67081154398056    2.42463076404926
H           0.76483569234920    1.93254731506184    1.60438896813887
H           0.99685168229326    2.29276128676002    3.10373151268872
O          -0.25042299002521    2.08326901288819    0.31063662977485
H          -0.68197097682983    1.20244493881021    0.28793963334453
H           0.22794306807055    2.14926051673263   -0.52704515286695
O          -2.07970868543687    1.13772585265850   -2.20236316935614
H          -1.14791375407726    1.40611896699034   -2.34138638647317
H          -1.98373342272040   -0.48255827880904   -2.10731766777742
H          -2.31113584864641    1.42215233717515   -1.31335635289170
N           0.41019084118504   -0.84837614974100    2.20171228097159
H           1.11234294372101   -1.47195139319501    1.69669338889190
H           0.05623357123873   -1.30971802749126    3.03298549424760
H           0.83176884951378    0.09071527999779    2.42359131494283
H          -0.37095668117139   -0.69096939321218    1.49856454225300
