    26
        -50.46982699  Gyration_radius:  2.47136857768 Dipole_moment: 4.715
 S           1.27157551563800   -0.62091117798906   -1.02111751430090
O           2.62805908140083    0.03402339715652   -1.37968994826396
O           0.19987055151297    0.16406312731721   -1.63906338123853
O           1.28003813502450   -1.98777631312945   -1.47238354281070
O           1.13525030794978   -0.53996256305124    0.45187728276485
O          -0.05518732137618    2.60088118030621   -0.84587217344750
H          -0.26274707967684    3.16245532984659   -1.59374671684082
H          -0.00701267060672    1.67083400190797   -1.20034596873239
O          -2.40452242962601   -0.24466816977847    2.10136373400927
H          -2.55537154138495   -0.24351596600638    3.04749539683357
H          -1.71714031346117    0.45292037088306    1.93210584516455
O          -0.36358996350857    1.33912445974888    1.60166145927429
H          -0.50493123601779    1.97517555334313    0.88731418571863
H           0.23545040274287    0.66040765100353    1.22318116650468
O          -1.30606515333279   -2.07925788421194   -1.86249836346663
H          -1.27043982388001   -1.13066168055042   -2.05221168283920
H          -0.36495420755526   -2.33754760748186   -1.95256261456100
O           2.41914905704770    2.14414003920859    0.13520143401855
H           2.66951545905863    0.87291212504382   -0.84767390512200
H           1.56788400039276    2.50745497332308   -0.18565599019357
H           2.23792733234775    1.75684292769228    0.99657247057044
N          -0.97933547508047   -2.05334051507402    0.75327307811434
H          -0.85809592663978   -2.97231301721754    1.16553277709907
H          -1.65537042124312   -1.46254198269870    1.30355184013890
H          -0.05362880637188   -1.53256682762515    0.71810756094592
H          -1.28632750333969   -2.13617144196862   -0.26441641932893
