    26
        -50.46858415  Gyration_radius:  2.39993970658 Dipole_moment: 6.984
 S          -0.91499360657009   -1.25122218329399   -0.33936271426727
O          -1.76019435742778   -1.82069313944790   -1.34247796151450
O          -1.17016612043101    0.19259418705146   -0.12883393396282
O          -0.91106982269731   -1.93178709288678    0.94854952290664
O           0.58179478227435   -1.31355371121636   -0.83366604775238
O           0.82254650057842    1.96285827196448   -0.08856129618092
H           0.10496134174728    1.29559985589015   -0.14584730696674
H           0.54025717490210    2.58443915235717    0.58565671185829
O           2.50501788685491    0.01332733537398    0.65719924390225
H           2.20785468176935   -0.63076160707107   -0.00182781442129
H           2.12118646363533    0.86229021469072    0.34984788886652
O          -1.18074858945125    1.28279523318929    2.27072871011648
H          -1.29266470944355    0.90298646298717    1.36700755475674
H          -2.04260565404407    1.22993674092254    2.68568653363509
O          -0.86004274298842    1.29569192450511   -2.58561231539285
H          -0.15308315044217    1.89189104269586   -2.32127291973971
H          -1.20803704920153    0.91523612813761   -1.75961525527701
O          -0.06833695168582   -1.17108518742377   -3.28236467355114
H          -0.88221131247647   -1.62399016514336   -3.00618199553674
H          -0.31414550626548   -0.22241310406360   -3.32058760146207
H           0.48209307356779   -1.28642540349094   -1.83933523519249
N           0.69785704859331   -0.63622959989773    2.45877749277325
H           1.52701834534798   -0.36942556232432    1.84247275839564
H           0.06026759713302   -1.28100525231103    1.86661452866766
H           0.99553655310543   -1.09353285218680    3.31335879398490
H           0.11190813361448    0.20247832099555    2.64964732135293
