    26
        -50.46152695  Gyration_radius:  2.59926870547 Dipole_moment: 7.385
 S           0.33006066236133    0.08395053523967   -0.64445331232620
O           0.20460599727063   -0.22595947229357   -2.04612065231682
O          -1.08557515735021    0.29799664346924   -0.02501901173320
O           0.97108743578998   -0.98731613141945    0.11905574601167
O           0.98898444680506    1.36875489440752   -0.38180218041094
O          -2.14451372489243   -0.56287183434913   -3.23981678507609
H          -2.45185702686072    0.29950167196912   -3.52158825453182
H          -1.23044968036086   -0.43046035589430   -2.91009646199782
O           0.65899202569298   -0.73598040924351    2.66697692531503
H           1.49149258905301   -1.01065767759929    3.05632835409524
H           0.73577611569095   -0.94623357700679    1.69682801847676
O          -0.14732010777508   -2.96674705402544   -1.26785785351043
H           0.01896735981479   -2.66821954501737   -2.16644369679378
H           0.37197258013203   -2.36243478043903   -0.70396947103698
O           2.69495344807766    2.68995983926725    1.35748231426736
H           2.30595834028543    2.23003601136904    0.59473035282162
H           3.49849527973779    3.10403041701572    1.04096840580584
O          -2.44275788427333   -1.68551909279712   -0.80253956557162
H          -1.72842593250350   -2.35746255942216   -0.89075204665572
H          -1.67967603053794   -0.50138081581591   -0.28006306528664
H          -2.61495109187768   -1.38903263835912   -1.71798100445818
N           0.22934986254403    1.77417544446649    2.04336349280399
H          -0.70414159164074    2.13334121764896    2.21289147335795
H           0.35586702009627    0.80055505209729    2.45819580625732
H           0.40494439187494    1.64271951583776    0.98618689523722
H           0.96816066293579    2.40525469082797    2.36549559726036
