    26
        -50.46053530  Gyration_radius:  2.41031014394 Dipole_moment: 7.489
 S           0.57092405411915   -0.71880822285118    0.15460522814038
O          -0.57753914592957    0.34082087127170   -0.00230774669703
O           1.73299949865550   -0.06162212145434    0.69175226730496
O          -0.00918848260587   -1.73168393537729    1.03492777078414
O           0.78887512211939   -1.25434093454060   -1.19717884351297
O           1.52087898835329    2.44059480197973    1.64660672993086
H           1.84653405480106    1.55166002891467    1.41411011772282
H           0.80870234847065    2.26193998333531    2.27813618711276
O          -2.93196431399680   -0.60219779416285   -0.94936192648578
H          -2.13123169934544   -0.11663724918586   -0.66770069693762
H          -3.64297098895583   -0.30199192497199   -0.38041944353653
O           2.27373222892649    0.88573740298924   -1.88010132511171
H           2.92977021676258    0.82753432609453   -1.17913588481050
H           1.76547573912336    0.05636658303627   -1.80749547288315
O          -0.41692221547486    0.71502077890653    2.74503814182545
H           0.02260515294039   -0.08665535687083    3.03685684895418
H          -0.63515495605371    0.55582461478925    1.81791983649002
O           0.45192121365936    2.44112189462779   -0.74886101923770
H           0.87728354029821    2.68164618207529    0.12098142605558
H           1.17125391346423    2.05959038264250   -1.31211957544717
H          -0.17525361053345    1.30636145965858   -0.37463171837901
N          -1.28782617832459   -2.70078990300879   -0.91233415218970
H          -0.46966475790294   -2.24666160189319   -1.41150285505173
H          -0.91739883764435   -2.52956742370358    0.08461956354825
H          -2.12912884359918   -2.09968509802641   -1.04642518100352
H          -1.43671206133225   -3.67357775427250   -1.15597830658609
