    26
        -50.46449939  Gyration_radius:  2.65292358465 Dipole_moment: 5.984
 S          -0.81039001204581   -0.75871929285294   -0.55868030689470
O          -0.64257186329367    0.45918809829656   -1.35175043408995
O           0.36661111603577   -1.60330625202824   -0.60312348149387
O          -1.13735493060919   -0.41628235598825    0.83334643069721
O          -2.02659203912798   -1.53686467684413   -1.12565144295459
O           1.29291053066150    1.61814175123779    0.00628411802620
H           0.73178853044434    2.17892633142011    0.55884463764632
H           0.67175618318658    1.23695445922006   -0.65505364065855
O          -0.34894253259415   -0.23797434459873   -3.89869708100906
H          -0.39270030176245    0.10300392747627   -2.97977284304524
H          -1.07715191170021    0.17282148735747   -4.36783167973458
O          -0.82159496114868    1.97426864653882    1.88070251220713
H          -1.67344062645362    2.38330268839809    2.04038064290608
H          -1.02070358434335    1.10199661820066    1.45913803868923
O           0.98147666324436    1.19652661462102    3.76220284013469
H           1.53310627303082    1.94922279756896    3.98054647260301
H           0.24897505034442    1.53885800570841    3.20762169971779
O          -0.56235731085971   -2.71842659551358   -2.86822070310080
H          -1.63718146973742   -2.10185494960548   -1.85936474327898
H          -0.42408587803646   -1.95849142624819   -3.47046003924040
H           0.10837093574947   -2.61170349267845   -2.17418747162710
N           1.36027005332482   -0.41919232296147    1.66130384031097
H           1.42395891377969   -0.01662051665208    2.61998324575567
H           0.35508940912924   -0.65723116379990    1.45401047251341
H           1.55822785284868    0.35689463313122    0.95301636981659
H           1.94252588992914   -1.23343867939637    1.49541254609143
