    26
        -50.46958843  Gyration_radius:  2.47156803213 Dipole_moment: 5.885
 S           0.29636574346140    0.75396419094816    0.55727593828254
O           0.22233132744292    0.70650009003516    2.00922056887951
O           1.08324825875500    2.01468587356223    0.18090647523614
O           1.00263802310105   -0.42010849956599    0.03397293437795
O          -1.03523209291432    0.83489214071145   -0.05221076952377
O          -1.55377933292290    2.84670954533643   -1.72617526789962
H          -1.71632378003268    3.64158415138198   -1.21628078165398
H          -1.47944909164140    2.11738011994870   -1.07691857856540
O          -1.67738843982274   -1.70284101705366    0.16311110281177
H          -1.57214836011663   -0.72743274622645    0.06910321500322
H          -1.16913219643475   -2.08882520317611   -0.55620224062955
O           0.00587436512002   -0.39703700104194   -2.41878121778422
H          -0.88422854747092   -0.08579328741129   -2.22784628985082
H           0.44277111152816   -0.51120341790401   -1.55066157347093
O           2.02593791609141   -2.41322309005797    1.42109489881261
H           1.75164296227082   -1.71055666815791    0.78776486199001
H           2.88374990320972   -2.14522615266842    1.75434681600910
O           0.96631252082370    2.12971296533119   -2.35190379590958
H           0.09179122431855    2.56758627394328   -2.38697737775553
H           1.12635075341785    2.08222396400447   -0.84166937713199
H           0.79455662907865    1.20241298694474   -2.61930663469700
N          -0.33465585685662   -1.76576457099310    2.44552870198896
H           0.58275323501096   -2.23095230006767    2.24504411654913
H          -0.13089172447551   -0.71065765235661    2.42429177343426
H          -0.96989583276990   -1.92016691676092    1.61506483725641
H          -0.75319870817087   -2.06786377870086    3.31820768423928
