    26
        -50.46982861  Gyration_radius:  2.54265009426 Dipole_moment: 4.889
 S          -1.10682295511306   -0.28381643731488   -0.43542621733801
O          -0.67782017396951    0.05204731295618   -1.77219289089084
O          -0.84289764985834   -1.68670690087206   -0.11821169537859
O          -0.45371807260342    0.57962375815165    0.57518865148324
O          -2.62835944261763   -0.02964766079861   -0.32525992090109
O           2.68340888460864    2.27448021117297   -1.16774133019464
H           1.72231540381798    2.45695643740638   -1.34491953599478
H           3.05684028701151    3.09440727863661   -0.84184223830544
O          -1.60076830200290   -2.41080295083804    2.30555329133886
H          -1.25002821288668   -2.21655544787271    1.40813985785554
H          -2.16793186245268   -3.17738574371219    2.20674121422118
O           1.33348050781677   -1.84963544589639   -1.59479757617770
H           0.52886742161095   -2.03986066322049   -1.06557424998235
H           0.99397766010203   -1.34653846215921   -2.34377565144365
O           0.06604271651369    2.54099773106019   -1.28878551778725
H          -0.19479307036041    2.35377116070003   -0.37814470270868
H          -0.23508615379819    1.74071730908337   -1.76196880041034
O          -2.55828801440196    0.09234459955221    2.24295384280561
H          -1.70951366752937    0.52731515212917    2.08304250304793
H          -2.81242736839807    0.02119998398796    0.65860041049610
H          -2.32703127684215   -0.83115250015621    2.48179900135065
N           2.06338512875558    0.02600281394033    0.11301645497410
H           1.94521765421560   -0.75751747692560   -0.59899745272347
H           2.46912749855309    0.87640340730851   -0.35665313988512
H           1.07507618086287    0.27044972825446    0.41953263419941
H           2.62774687896684   -0.27709716457404    0.89972304835463
