    26
        -50.45996062  Gyration_radius:  2.57755938465 Dipole_moment: 7.109
 S          -0.50124530142438    0.18541189104347    0.60379094727336
O          -1.81951973123999    0.20276475181064   -0.00660315707098
O          -0.48916945560604    0.24156802365731    2.03898849881258
O           0.09894938390266   -1.22112574528013    0.16110087646885
O           0.37159850525598    1.18436958315590   -0.02302308911038
O          -3.12188197731415   -1.61981375258606   -1.33518403620583
H          -2.72678405993744   -1.00303599589401   -0.67118256102053
H          -4.01453903881329   -1.30710000904335   -1.48894480746502
O          -0.83046668045427    1.51006433984195   -2.26551796860637
H          -0.27475520638583    1.50783349932418   -1.43812138875787
H          -1.71528069846227    1.70204798783145   -1.94167967166980
O           1.98684774762081    0.40357834239865    2.99610453147184
H           1.01998223779132    0.38305594206409    2.84005604536317
H           2.28953449403759    1.21518172005984    2.54411980336589
O           2.21699653609230    2.54988264354870    1.35575773883086
H           1.75096037504152    3.33639538613393    1.64367974820531
H           1.59589209630942    2.06603213508562    0.77434582715901
O           2.32013179414398   -1.53911646278027    1.34448535871530
H           2.32247768611110   -0.77201928899779    2.00292035349357
H           2.28220764116309   -2.33504717106458    1.87889040377725
H           0.99823400490729   -1.33269679503067    0.62343146625298
N          -0.73919758021836   -1.09175902051014   -2.36271314075453
H          -1.72223305044948   -1.43044552745649   -2.22668111536324
H          -0.76982757472611   -0.02026183271002   -2.48115178204224
H          -0.26793999094921   -1.25368679851231   -1.44291769500592
H          -0.26097217639055   -1.56207782607307   -3.12395118611664
