    26
        -50.45996063  Gyration_radius:  2.57753211865 Dipole_moment: 7.108
 S           0.56866784999916   -0.41185406396678   -0.39656091051508
O           1.20284678943799   -0.40919345794414   -1.68530790057327
O           1.26182267310745   -1.16527140002008    0.63430838178652
O           0.57697148680214    1.07991473277773    0.15945112472566
O          -0.84813957046963   -0.78954026861112   -0.44806207685884
O          -2.22921107183274   -0.87883602903938   -2.74065880830541
H          -2.11832018044942   -1.78305644729750   -3.03866189832800
H          -1.80763170125653   -0.83194247636278   -1.85859436935802
O           2.47664588832639   -0.39064619755055    2.80376427491825
H           2.19951964048514   -0.67138694952066    1.89720581247463
H           2.92603089468302   -1.14435612427313    3.18877872014126
O          -1.14872971678377   -1.78652858377785    1.89619268486737
H          -0.42608214226396   -2.42086867786078    1.88945677878713
H          -1.17750058610273   -1.45603439772920    0.95631146024827
O          -0.27768637405034    0.83921792703226   -3.50817492756956
H          -1.09837127038642    0.31242861119236   -3.44773718841043
H           0.38211691345108    0.32262954519788   -3.00080005734567
O          -0.38081568861783    2.59692673074163   -1.63393692794226
H           0.17292710358147    1.67919520525786   -0.55649394541903
H           0.27320003823309    3.25792555737318   -1.87038920165176
H          -0.43714760341059    1.97640597351787   -2.43005487595665
N          -0.03476589309763    0.43778027984350    2.66993715736271
H           0.11823202718082    0.85860287851532    1.72452422402826
H           0.92401672879761    0.18791597942097    3.01332760489277
H          -0.52578396130248    1.06974743568545    3.29352488317709
H          -0.57281227405827   -0.47917578259609    2.48865001082705
