    26
        -50.46117192  Gyration_radius:  2.41699825283 Dipole_moment: 3.328
 S           0.39898677163639   -0.12514433601547    0.93850567012187
O          -0.85358782709296   -0.76699575065791    0.48809427543326
O           1.38942346598262   -0.15842331682491   -0.12794107302984
O           0.13127191547740    1.22095376955248    1.40676327734188
O           0.94267174847011   -0.98926455225536    2.09926966827613
O           2.00847868556579    1.94386705872266   -1.70390847324042
H           2.09216016318077    1.50448745712159   -2.55362298409964
H           2.01252871603103    1.23810108606252   -1.03118996290105
O          -1.46913903213584    0.42119067597190   -1.64917352497647
H          -1.09316971165336    1.40814583944633   -1.37909265216703
H          -1.41217413654618   -0.08665171720880   -0.76199616739779
O          -0.13965956603688   -2.91407470910106   -0.97440675084893
H           0.57220175941308   -3.35291674896032   -0.50639614776435
H          -0.48101739098551   -2.22989940658545   -0.36660662893290
O          -0.42954656256224    2.51364096492105   -0.82066740289757
H          -0.26068107854053    2.21000191550624    0.10201938789430
H           0.46450130022211    2.54167175405146   -1.23624477579087
O           0.53022536731081   -0.82671132197928   -2.54108780126018
H           0.26143897470384   -1.75033505400761   -2.37471262304761
H          -0.71626589343645   -0.04763986020665   -2.20291716383694
H           1.02724356536571   -0.59892201361014   -1.72371289303303
N          -1.09345304358438   -0.23116961139419    3.49777693239696
H           0.24056554149196   -0.84755052100554    2.80556441416740
H          -1.92200835249290   -0.68110210387572    3.13079415345731
H          -1.23279294049900   -0.04306661433273    4.48217311612862
H          -0.96820241928973    0.64780709666329    3.00271613001425
