    26
        -50.46836585  Gyration_radius:  2.55038149614 Dipole_moment: 5.031
 S          -0.50938103618033   -0.19237698440904    0.20439885969398
O          -0.14009944589511   -0.03396476080293   -1.30668682088552
O          -1.28096139407600    0.99385578842124    0.52347537511342
O          -1.21650653289463   -1.43660481257146    0.38044307095246
O           0.77542801415667   -0.18351847283878    0.93597387630647
O          -1.69016184071483   -3.12985167397871   -1.60956506135429
H          -1.61269995612243   -2.56200814521868   -0.81348570050784
H          -2.47972086169492   -2.83985660621201   -2.06806256685286
O           1.27504422778426   -2.77463008749121    0.57421476332985
H           0.41823856166798   -3.15007410027227    0.79776225177473
H           1.20589926431753   -1.83388282290261    0.82379286858049
O          -0.76110401300008    2.68438014209748    2.46738009862542
H          -1.11274223165321    2.07651146187404    1.77457324639424
H          -0.95997436086924    2.26876219762265    3.30758860341758
O           0.00565654649402    2.65578777340602   -1.30989869647139
H          -0.86118526221285    2.82437499589920   -0.92553664924026
H          -0.01506087236108    1.70581977586727   -1.52765468004825
O           0.81858612884610   -2.24636485789604   -1.99234362869815
H          -0.01944368266577   -2.74207260953377   -2.09519295403664
H           0.29164333204472   -0.92113516273169   -1.63546666668656
H           1.18748487561650   -2.55802179957992   -1.13204196417598
N           1.37556440230335    2.30372560746498    0.93199648098475
H           2.33911618419405    2.59284910841002    1.05801714375909
H           1.25336024382738    1.23136498322725    0.96035240263883
H           0.73797527218484    2.66605944923383    1.67675002462214
H           0.97504444688232    2.60087159295116   -0.00078367721639
