    26
        -50.45826131  Gyration_radius:  2.56746855863 Dipole_moment: 6.597
 S           0.79187207718672   -0.86731390401431   -0.02956839299042
O           0.30492181238118   -0.69762229726867   -1.51013368524625
O          -0.08988450510393   -1.78626232363115    0.64988356131090
O           2.17007438857930   -1.35430778527447   -0.16330312259087
O           0.77939707332777    0.46676119644145    0.56513650048894
O          -3.19591796747371    0.91712632664972   -0.09094658777742
H          -4.03922013649122    0.79479059389821    0.34777444687916
H          -2.55012954147712    1.15703137254485    0.62429663053373
O          -1.57745109805287   -1.30337477414325    2.82180726045908
H          -1.03625838618076   -1.55067501612283    2.04565463313387
H          -1.09149768543838   -1.60587894655518    3.59011151924116
O          -1.46039229863259    1.25965885619136    1.86438703403225
H          -1.63288312905282    0.44683980343387    2.37342124789115
H          -0.61087726306685    1.09233934129175    1.41903783934797
O           2.22202017340183    2.26851983836874   -0.61723432686559
H           1.58018063406553    1.67585733483947   -0.14400670330039
H           2.74719061667239    2.68122721747849    0.07068558030301
O          -2.11526076903918   -1.27286285257661   -1.10908722279644
H          -0.69617483122785   -0.89228893992775   -1.47967941904602
H          -1.83641126886065   -1.73949921502267   -0.30946651073349
H          -2.57147716906511   -0.44551726178069   -0.80665343385947
N           2.81611077981951    0.15989671229949   -2.06088783135129
H           3.69402863931189    0.02738444928459   -2.55193288917216
H           2.73511840506277    1.11018311380507   -1.59832415598320
H           2.01082528946655    0.02753332259120   -2.67239957536092
H           2.65209613987218   -0.56954618282493   -1.22857239656541
