    26
        -50.46934072  Gyration_radius:  2.48066263369 Dipole_moment: 4.120
 S          -0.77768086651996   -0.09892244007095   -0.42432084782416
O          -1.04789413897950   -0.55696364601247   -1.88415055157342
O          -0.74026286977446   -1.29176257628130    0.39963677860436
O           0.54462268747530    0.55554562075709   -0.42976164337612
O          -1.81282625613417    0.83547401447212   -0.02146050840089
O          -1.26762601599059    0.64644651507964    2.56036210133240
H          -1.72532946200204   -0.16734692340421    2.78494969235887
H          -1.54488825687395    0.84308709150888    1.63701165746617
O           1.37624288656763   -2.35730867030931   -0.92850500331498
H           1.32157086157612   -2.30778452684622   -1.88339690088790
H           0.55299102088449   -1.96308908494083   -0.59798616824227
O           1.23241115092867   -2.48080557464472    1.86748883729012
H           1.73143337408456   -2.74213076548501    1.08220165658698
H           0.33130780243665   -2.35166120718766    1.52624246358979
O           0.54827238014257    2.55367647427558   -2.18307506269631
H           0.60595515277458    1.87098973489648   -1.48164563658120
H           1.22908167182734    2.33829861055667   -2.82294810667413
O          -1.97878272945382    1.71901680991305   -2.58447818019578
H          -1.13948640111801    2.22541739702708   -2.59591389778711
H          -1.44857263553134    0.24783786477439   -2.33950871381481
H          -2.29225957493407    1.77051481484679   -1.66920363060587
N           1.29463174876233    0.15483603572322    2.02412296953922
H           1.17382745785048    0.37676987214848    0.99285734451793
H           1.43030763106407   -0.89704125009655    2.08791323578178
H           2.04994778540981    0.68214278970022    2.44803859786233
H           0.35300560552251    0.39476302962310    2.43552953703814
