    26
        -50.46934070  Gyration_radius:  2.48073233241 Dipole_moment: 4.120
 S           0.04405628490691    0.29040965252458    0.84196049038652
O           1.40704638751085   -0.14841726265365    0.61208890618982
O          -0.06951379136205    1.72944429769510    0.99435431575354
O          -0.83359797764431   -0.19186776761641   -0.24156852960059
O          -0.44703738358329   -0.39813232159768    2.14524317563039
O           1.50146831201489    2.27986409965073   -1.06172190961724
H           0.87107814263954    2.21860453940137   -0.30872958952327
H           2.36868766567226    2.17056431200683   -0.66402452694521
O          -3.36802347504794    0.34990816867957    0.34976685397207
H          -3.81506971945953   -0.49760990701482    0.38415328847367
H          -2.45645426885784    0.16618831797203    0.03878179924689
O           0.71548562550355   -2.76596550398136    0.38973597725261
H           0.10388880344471   -3.08127159377850    1.05590326455803
H           0.88371052220516   -1.83508101170914    0.60778146573112
O           2.58147703862713   -1.62566897333576   -1.36235002615666
H           2.13309259198637   -2.43822906445237   -1.09270808350322
H           2.54940609794682   -1.07679167321460   -0.56060089022345
O          -2.24728007939836    1.36554914920260    2.57598767900864
H          -1.19072191954319    0.19039420857425    2.48609101716544
H          -1.62250794647879    1.97464926905353    2.15492530881358
H          -2.87515441805330    1.11303394566283    1.86675579142527
N           0.75009642145738    0.03744830567924   -2.28707288929329
H          -0.01294066648787   -0.15615554075434   -1.57458234830721
H           1.51059292642548   -0.68355472362940   -2.11167819802859
H           0.40216318293115    0.02838633370371   -3.23950195269670
H           1.11605164264333    0.98430074393694   -1.99899035971035
