    26
        -50.46690563  Gyration_radius:  2.56693272149 Dipole_moment: 5.312
 S           0.66001637179112   -0.00492503220511   -0.94401035156847
O           0.63891629843135   -1.44240526541068   -0.70782336486152
O          -0.03689424251476    0.38320931565975   -2.15074468635885
O           0.14807681220384    0.72604338072330    0.22897565508738
O           2.16675906800424    0.36218440656250   -1.06887932639396
O          -2.20717862746344   -0.27130732907707   -0.46077732467510
H          -1.45969806588245    0.20284620016585   -0.05274460399303
H          -1.94661549675614   -0.35529254334602   -1.38385993995010
O          -2.57746033515260   -2.32703728099447    1.19473722359524
H          -2.55865401751775   -1.52637015032633    0.61893295681413
H          -2.95432379271173   -3.02611202333001    0.65779844538822
O           0.94249719875917    0.03033065257109    2.61722533367452
H           0.61965375839420    0.40821844211259    1.76235669205140
H           1.87090159088696    0.26314033129465    2.66955477034012
O          -0.45162953562341    2.89715867187951   -1.47333803142135
H          -0.44430839278755    2.00298109024607   -1.87761134918960
H          -0.62181868555714    2.73588399107443   -0.54025527681415
O           2.17152437412430    2.88341863427849   -1.69132698834951
H           2.35915903559387    2.95829458603665   -2.62944175020543
H           1.20075299113588    3.06468343464326   -1.59222097831578
H           2.23241593912704    1.33686502878025   -1.27788158918807
N           0.05267226743869   -2.28698630382551    1.64776172650195
H           0.48960056777638   -3.15901412026630    1.92398153900654
H           0.35890849074127   -1.48834922474732    2.25256877168053
H           0.34270181423521   -2.00094613800975    0.64848629963923
H          -0.99597535666311   -2.36651277456632    1.62853615761239
