    26
        -50.45980261  Gyration_radius:  2.45195551067 Dipole_moment: 4.811
 S           0.72350159527646    0.05981004021599   -0.69235656959134
O          -0.25726044019733    0.53709188863092   -1.66621711184370
O           0.67577261456518    0.96602100792187    0.51490661631345
O           0.36245795674789   -1.30086162963472   -0.22062948637828
O           2.09106137355810    0.06563469427164   -1.21543493435590
O          -2.41049295068316   -0.94960195831358   -2.17507595257939
H          -2.14240570884509   -1.71275868456536   -2.68841641831987
H          -1.61464958433805   -0.38079233958520   -2.10140357610754
O          -1.89504827508864    2.51224172605270   -1.11873451677769
H          -1.41336954980710    3.33743041413423   -1.19586953476579
H          -1.29937517112187    1.81146840508736   -1.47819789483404
O          -2.14708366468583   -1.12044761844902    0.47504916413634
H          -1.19625240088340   -1.32285435995178    0.29180739067362
H          -2.54498922372976   -1.10564697948594   -0.42205228095442
O           2.30040258757735    0.33944640407079    2.48848366167685
H           1.73451571444837    0.70829754253437    1.76841225195054
H           1.74935872601231    0.32090929078965    3.27251351866998
O          -1.67743441303155    1.25229824936766    1.10989980484676
H          -2.01183120479852    0.26562011057576    0.91321858641539
H          -0.58831443574869    1.15338133342662    0.91218813680221
H          -1.96710712537644    1.81948492180858    0.32490357375210
N           2.75736442151838   -1.49501135103122    0.61243562342768
H           2.81283478695646   -0.94266629642880    1.49420720936728
H           1.75709701532634   -1.79789615094526    0.47099948277507
H           2.75853823264928   -0.78199017911343   -0.22501446345456
H           3.44270912369775   -2.23860847139352    0.55037769914821
