    26
        -50.45423358  Gyration_radius:  2.44472061571 Dipole_moment: 1.977
 S          -0.08926952239911    1.04200308423153    0.33810578768588
O          -0.97376208953798    1.48389568306516   -0.74606456772289
O          -0.80092769545615    0.06176383026588    1.20360591795241
O           1.08758515103113    0.34461950842424   -0.24333142216617
O           0.37239725213262    2.17973128353548    1.16065071544370
O          -2.82868212674028   -0.35382465465724   -0.25850497889051
H          -2.73906699798815    0.54313314200132   -0.61606581419945
H          -2.11204333870543   -0.33331149055220    0.44580518019898
O           0.53320498708532   -2.06998039801430   -0.81604311087808
H           0.73619560717667   -1.12226053811669   -0.53331036796021
H           1.26377232741727   -2.32967978064906   -1.38098478200088
O           3.05654686432626   -0.07589522137028    1.40504684674297
H           2.35110865291326    0.04588972578461    0.71455756587490
H           3.72587448719539    0.57875555786733    1.19979480890970
O          -0.68826693159924    0.48569517762765   -3.07243072072630
H          -0.66249096108432    0.93754167555601   -2.17436111925466
H          -1.20245385862303    1.06216339622468   -3.64023344735410
O          -1.62431251430321   -1.62643954890548   -2.03040649884243
H          -0.76362462185190   -1.93281880237536   -1.52689894712371
H          -2.22864668364341   -1.16556932815983   -1.26411811624328
H          -1.28991661733119   -0.83060780650475   -2.59019971472319
N           0.99893773743307    0.59913089005666    2.95965454004814
H           0.93702530199188    0.75260313646150    3.95862029076745
H           1.91675098093794    0.22011553202112    2.64311609904738
H           0.22885318921117    0.01234431967245    2.57053026181974
H           0.79521142040736    1.49100160650079    2.29346557359514
