    26
        -50.47154171  Gyration_radius:  2.41284820191 Dipole_moment: 5.054
 S           0.10487500848051   -0.83862258921418   -0.46344015459551
O           0.01565555539976   -0.76526374079188   -1.90438839737690
O          -1.09923124048231   -1.35993806552736    0.16805778254153
O           1.25274149723753   -1.81312717007851   -0.06584043650400
O           0.47082319027189    0.46543254295711    0.11898361060954
O           2.52007066851760    1.21667796151408   -1.42561222044292
H           2.14792640598574    1.80333454975870   -2.08688945176015
H           1.79457109584252    1.01746558683164   -0.80190908994301
O          -1.63759372179111    2.07707083572835    0.60884364872792
H          -0.71241458019103    1.82426089240971    0.44484053319653
H          -2.09374412179224    1.74605643817912   -0.18992056417564
O           0.90174307290433   -0.25013021363960    2.62951447635582
H           0.91004662343884    0.10219876504570    1.71489969575544
H           1.29393188080040   -1.12338603817619    2.56429590653779
O          -2.30112821948594    0.57304613594309   -1.55294713812646
H          -1.45629702763831    0.17199462380717   -1.82442375277459
H          -2.87161801127292   -0.17226931239517   -1.35281434676441
O           2.63374177539732   -1.36531058672330   -2.17451624596082
H           1.92131228971898   -1.76638562465615   -0.81617473996460
H           1.77353096110958   -1.28945720099477   -2.61312958983025
H           2.88884474626236   -0.44099144057206   -1.97184997141868
N          -1.72421486442014    0.03843762983661    2.24088118202615
H          -1.82651402578467    0.98078158777520    1.74496337710423
H          -1.59767429120409   -0.64977040602339    1.43169686459081
H          -0.80445526786345    0.00794964158767    2.73165834829305
H          -2.50492938943387   -0.19005483258299    2.84522070390235
