    26
        -50.46832485  Gyration_radius:  2.56108237586 Dipole_moment: 4.112
 S          -1.07023113770175    0.31005998956112   -0.38868024195360
O           0.23856317481597    0.82042039994302   -0.83207539510189
O          -1.23899501242304   -1.08149433045757   -0.77808474469122
O          -1.23329008133210    0.52041451325147    1.04369058317616
O          -2.16479089629214    1.15712542622037   -1.07910969816641
O           0.23123560429558   -0.88322673755486   -2.94680439634976
H           0.69595670517288   -0.13253667278217   -2.55601619251794
H          -0.28795173099977   -1.22839574080664   -2.19190966851213
O           2.18253432482507   -1.57125640725217    1.62448854651385
H           2.50191620200410   -2.15416128675039    0.93370976665206
H           1.21520793314692   -1.77995274223605    1.73001896706122
O          -0.42114468404145   -1.92928860117049    1.63556075096939
H          -0.79221277345952   -1.03281113799255    1.72649242883112
H          -0.70013003841903   -2.15821671551414    0.73679816861475
O           0.07020508073390    1.96013733448592    2.80363537908684
H          -0.55713656064525    1.56155500871276    2.15690397520712
H          -0.14227854110786    1.56473195354520    3.65127709840653
O          -2.00506952746005    0.39285929415467   -3.56281451466225
H          -1.13454407629910   -0.07760647788041   -3.53565108947921
H          -2.67132805461072   -0.28613590731020   -3.68960773451026
H          -2.13122723284449    0.94519585832538   -2.05179212023496
N           1.91403704600368    1.02760712261472    1.12079833696414
H           1.25333345053476    0.99858500501484    0.27318320219285
H           2.14755730896209    0.02746708417356    1.35933030104820
H           2.74454091618009    1.57232414061224    0.91691370782175
H           1.35524259099950    1.45659958706679    1.89974460365208
