    26
        -50.46995301  Gyration_radius:  2.48935186492 Dipole_moment: 2.961
 S           0.78622653224853    0.01833376723348    0.19517951744465
O           1.32816324649981   -1.31091309700196   -0.05999339338754
O           1.68361883711811    0.73863398638811    1.23774354977633
O           0.78415811762839    0.83441183327498   -1.00289738880395
O          -0.55589327067799   -0.07438666985371    0.78660965987095
O           1.53538542298153   -2.74067274157808    2.16671904290272
H           1.44161019174346   -2.31336602779164    1.28837179970217
H           2.44840057517701   -3.02719624041614    2.22565585866692
O          -1.22599994027945    2.18432084102992   -2.27256474367676
H          -1.31833458973975    2.82840246547369   -1.55771602465924
H          -0.32790336408270    1.83504034124170   -2.14357173075248
O          -0.04782672894687   -1.67697118425156   -2.30039535365124
H           0.47377724277664   -1.16589727601948   -2.92426443107610
H           0.48769712471698   -1.68801609106656   -1.47699698532561
O          -0.38699170389519    2.93274940615255    0.28091750119307
H          -0.13074061957574    3.05128157134969    1.19623479628943
H           0.16516267716520    2.21177742163574   -0.06035741267220
O           0.60396485886108   -0.46256500339252    3.22021862276994
H           0.93956549453783   -1.37394027867969    3.07785138874390
H           1.40908500089192    0.35289193326918    2.12709843870862
H          -0.20012912755455   -0.40631675983801    2.68379227960469
N          -2.02202853311329   -0.15601940529379   -1.34705667241745
H          -1.89569630404610    0.80419080727272   -1.78430139393428
H          -2.98983340368639   -0.45704015068839   -1.31757575543261
H          -1.40249271673671   -0.83608002465856   -1.86022535957514
H          -1.58294503010085   -0.10265341372706   -0.37847581033217
