    26
        -50.46995305  Gyration_radius:  2.48935244758 Dipole_moment: 2.965
 S          -0.71529665289564   -0.25449774725945   -0.28427786290424
O           0.62755245714508    0.15613672017363   -0.71751778628970
O          -0.67708157203608   -0.92901093596695    0.99827932599965
O          -1.62072153871364    0.88805224566624   -0.26485568829904
O          -1.22421961037230   -1.28525751669930   -1.32810155528609
O           1.18578108069265   -2.72156129328553    0.13887135156055
H           1.11116104930204   -2.98574262123440   -0.77880222120265
H           0.41798070210326   -2.15627756615832    0.31801083583447
O           1.40431882882323   -1.54639025076925    2.65993755447408
H           1.76960353468351   -2.19981667175043    2.04836459379278
H           0.47581212749659   -1.47413773971223    2.38079217155337
O          -0.74147350786751    1.82022617612633    2.05990001100111
H          -1.13146003450864    1.60825436213323    1.18355440770482
H          -1.19783227837548    1.24262649755858    2.67675778312922
O          -1.86184060250529    2.00185608360067   -2.66196864413888
H          -2.79854566310240    2.01681589248494   -2.86571650695674
H          -1.79143101877023    1.69638056196906   -1.73210549015529
O          -0.21566776251841   -0.01001452497622   -3.30182230998603
H          -0.93124511781548   -0.91817983132951   -2.21944002280689
H          -0.79733064153264    0.78055763472183   -3.31628265046100
H           0.48492330377200    0.20759477857580   -2.66991481673341
N           1.68363204921349    0.83164838446836    1.54901054178327
H           1.75136989704192   -0.08310553172274    2.08547039527495
H           0.83698174305477    1.35452763381786    1.89457815743517
H           2.53071776587016    1.38678957338003    1.59794715259177
H           1.42431145170872    0.57252569613670    0.54933126314119
