    26
        -50.45676981  Gyration_radius:  2.57773806384 Dipole_moment: 5.497
 S          -0.40718229961354   -1.07226210397067   -0.46543721079151
O           0.59308423929179   -0.17696997831783   -1.06144345115112
O          -1.75396230732701   -0.57059137128786   -0.59253979586120
O          -0.21032947910395   -2.43765386546362   -0.94098957321186
O          -0.05586282400702   -1.12615692827731    1.06974506041028
O           2.38357742552995   -2.08835265611204    1.76691158533070
H           1.51516328237212   -1.64787598957445    1.68746320527934
H           2.26172361828571   -2.81165078844591    2.38442713380478
O          -0.39329848018133    2.89472875838163    1.43768289399682
H          -0.93667820518466    3.68375268315278    1.46892714478228
H          -0.12657154934285    2.78603346554941    0.48655958143508
O          -2.54430375493676    1.74407936148934   -1.65353587707705
H          -2.90957993333010    1.57426186457566   -2.52273375149993
H          -2.31069112435889    0.86863519194682   -1.28318703408581
O           0.03993026288031    2.47343682164969   -1.12496286427682
H          -0.88920248689705    2.42397234596423   -1.41436304644097
H           0.35199351869703    1.55109868246501   -1.14759729562302
O          -1.65468947341962    0.62498703691973    1.90231683783910
H          -2.19968782155674    0.52543734075754    1.11130364648691
H          -0.66482126288138   -0.43208354631056    1.51850240861075
H          -1.18063896751654    1.49413445418062    1.81420963035488
N           2.28024428515559   -2.08052416519295   -0.90296453932008
H           2.59662451555543   -2.18112358365722    0.08601925619014
H           1.95141047260738   -1.08807178571617   -1.05371851805825
H           2.96314924114256   -2.39706627882908   -1.58223050915777
H           1.30059908813607   -2.53417497587946   -0.98836491796973
