    26
        -50.46832485  Gyration_radius:  2.56066050897 Dipole_moment: 4.095
 S          -0.97936793790515   -0.07458632916579   -0.65617598596775
O          -0.56835765501736   -1.43863416277072   -0.95112772345848
O          -2.08275833335392    0.34096813405081   -1.65708017026255
O          -1.55893674097927    0.06621868259157    0.67309546009458
O           0.14955260944823    0.85722519200306   -0.82050988777717
O          -0.15290320646006   -1.95114153461180    1.65333616154921
H          -0.80994881413042   -1.23612849833702    1.56925565327225
H          -0.10346383696838   -2.26972548697043    0.74024398213579
O           2.10300207437413   -0.72329139230670    2.21132784503462
H           2.75437233571939   -1.15866506512044    1.65891852223334
H           1.26515482395230   -1.25058711844786    2.10978815715385
O          -1.29177461092931    1.85137015656190    2.57398551339371
H          -1.56958994196088    1.26747761389210    1.83077601748604
H          -1.55735951291118    1.39731295540268    3.37605761348624
O           1.24578229317752   -0.74531473509348   -2.72029145298704
H           0.69937060224164   -1.24634948965368   -2.08067535015843
H           1.31974977438745    0.12082260982521   -2.30030158248053
O          -1.05749678034584   -0.32395291100497   -3.95596335800119
H          -0.11624427033356   -0.46363334008730   -3.68325721446376
H          -1.40336198964396   -1.19201452872788   -4.17462131912190
H          -1.73703234218243    0.15284034286513   -2.57215104281416
N           1.11302185469483    1.62524052468324    1.44790264291789
H           1.73465349003883    2.42486944084263    1.40132925162176
H           0.73414917964005    1.37294025155094    0.47394219312135
H           1.60232332912606    0.76670658277722    1.81577357217899
H           0.26746359631858    1.83003210522964    2.03642250182631
