    26
        -50.45754384  Gyration_radius:  2.49289393267 Dipole_moment: 6.139
 S           1.08262797564171    0.76112259434417   -0.14910363517360
O           1.43053765200941    2.06556649166107    0.36423881852446
O           1.98452520307947   -0.30349986287331    0.20682331062738
O          -0.33800195688909    0.40921731990876    0.46901628490648
O           0.78998259968192    0.80609491839651   -1.59497868942539
O          -0.94955306017748   -1.23946264751255   -1.75631594925749
H          -1.26555508961748   -1.15016936247107   -0.85188131959027
H          -0.24968821734139   -0.56899913696209   -1.85281789034020
O           1.11170569043242   -2.73703638718806   -0.60873254734511
H           1.58119074977769   -1.91127804535805   -0.38692142911606
H           0.41603197114750   -2.48412812952560   -1.23665233195308
O          -0.05204923998222   -3.20148472748774    1.72183120308191
H           0.36242786537996   -3.96184735981118    2.13172033913391
H           0.35768335580150   -3.11947877226079    0.82246315529873
O          -0.83108737793551    3.25760017385457    0.64473350837370
H           0.11294378159920    2.93769598507214    0.59461092661727
H          -1.20172774566515    2.81633693678350    1.41287711099258
O           0.60838478027108   -0.75107131720322    2.50046347116592
H          -0.10074186030485   -0.02056311469663    1.35868760223645
H           0.30194094281533   -1.68179268504154    2.36023588115219
H           1.46619445663499   -0.69504463575467    2.05385358962231
N          -1.35680031165026    2.16626908294186   -1.66190965204128
H          -1.28474767071998    2.66953775899156   -0.71097080299181
H          -0.41154170226925    1.61106606801887   -1.73097644030805
H          -2.12212917303703    1.49685282788651   -1.67327260031771
H          -1.44255362876761    2.82849604622297   -2.42702188388493
