    26
        -50.45754372  Gyration_radius:  2.49273939648 Dipole_moment: 6.132
 S           1.09401448329429    0.34625636093982   -0.67802321736030
O           2.47306646344170   -0.07068084186826   -0.57566861856799
O           0.47412430391017    0.12268386444851   -1.95838183461325
O           0.29423049905054   -0.51044787568325    0.39479722517677
O           0.90379204537201    1.72275988756043   -0.18084071911520
O          -1.64600861407700    1.54111335670772    0.65720707846857
H          -1.60464391321722    0.59822927348156    0.84451100018743
H          -0.77485951794576    1.76921737306976    0.28603023809402
O           2.75964279778603   -0.70014886477191    1.90177359522626
H           2.80998811593978   -0.49910809914051    0.92554886711751
H           2.28004388120514   -1.53017143125201    1.95922752565851
O          -2.83449221729571   -1.77655358662213   -1.42286218269334
H          -2.68209946115840   -0.81962100363036   -1.63345422056621
H          -3.34970420825142   -2.12732198625287   -2.15050332670464
O          -2.16874553060491    0.72657980740900   -1.96488369966954
H          -2.24623561417624    1.23354664388210   -1.14079106967342
H          -1.21221358054034    0.60520104320837   -2.11257397372121
O          -0.25770229056138   -2.37869380806505   -1.20963883476117
H           0.07484878080337   -1.79290768912802   -1.90584826683906
H           0.05940219922596   -1.35656937817551   -0.11639767114974
H          -1.24387228350982   -2.31279776669365   -1.26272982520480
N           1.35634388829395    1.45725594999948    2.30668091287916
H           0.45145655504729    1.32239257220999    2.75042687467312
H           1.86937490582437    2.21253085704345    2.75131005762234
H           1.93061026682340    0.54466007312497    2.29245319338981
H           1.18963804529798    1.67259527815548    1.24263091214651
