    26
        -50.46642047  Gyration_radius:  2.595736441 Dipole_moment: 5.582
 S           0.31685146212330   -0.86782725160063    0.87963567381203
O           1.09534456194169   -1.83624742450753   -0.07312864180454
O          -0.12461105847583   -1.60828261165852    2.03244492039401
O           1.25996323970142    0.20167394419330    1.17831559191268
O          -0.81418021740655   -0.33540166102431    0.09269491848054
O           0.78838418545710    0.23291698061398   -1.91873791017981
H           1.42183775322806   -0.47391054933707   -1.76453362328721
H           0.09766666159830    0.07004224740847   -1.24354380956337
O          -1.86246764718669    2.06437622315887    0.20531964776614
H          -1.58052636311503    1.11901910783395    0.23482995727347
H          -2.25072835986141    2.19369096690928   -0.66242271406845
O          -2.35629377889992   -2.46403376752468    0.94882123975628
H          -1.67145074306510   -2.18048931336999    1.59036061064584
H          -2.41095812496037   -1.71884616291817    0.34114506598025
O           1.76412092737670    2.69366852722825   -1.81499442201399
H           1.37345542652267    1.80023285010108   -1.98208436920146
H           2.70653475652397    2.60242596660662   -1.96360845360721
O          -0.39987937020314   -3.94529562250321   -0.02120554391583
H          -1.25523711060147   -3.52260993149523    0.24907770435034
H           0.56185414372687   -2.68118778242487   -0.11012739717628
H          -0.11204636117032   -4.45340195597248    0.74070924252046
N           0.69683328947172    2.65601208013237    0.62393238898065
H          -0.34489168613751    2.63487185702440    0.48644277100074
H           1.16582766185524    2.84525981414585   -0.29715431386445
H           0.96899489417842    3.32047178881521    1.33913259906718
H           0.96560186712112    1.65287170059663    0.90867887657621
