    26
        -50.47441757  Gyration_radius:  2.50826331675 Dipole_moment: 3.663
 S          -0.02881729877033    0.31891811863125   -1.06430710237266
O           0.08290941480633    1.45646207739071   -0.13392600993809
O          -1.17013809859346   -0.51458806399695   -0.71454430748101
O          -0.24590290475518    0.89034343298108   -2.48086313991320
O           1.21401020687066   -0.43660378312023   -1.07512753003616
O           1.21425213386034   -2.86521957761840   -0.01462920544408
H           1.18404542527686   -2.00809453161612   -0.49708931667559
H           0.94263457959483   -3.53263571347990   -0.64599999679082
O          -2.04984880521044    3.01785950791009   -0.31289861917730
H          -1.74712981983235    3.86200052915068   -0.65205882475735
H          -1.24405242246663    2.47677034139929   -0.16740012970048
O           3.04931847809666   -0.72916289209890    0.87234587208957
H           2.61967578942303   -0.48097413093278    0.03084723623393
H           2.99293107373299   -1.69058790036581    0.89501078751504
O          -0.68610962864811   -1.75535889060864    1.57239109704295
H          -1.07300034685704   -1.33750105662369    0.77201358956718
H          -0.04562511775948   -2.39468868666131    1.20599102438546
O          -2.76173071179590    1.14325680580175   -2.10304477841008
H          -2.75984958314426    1.90469612795230   -1.48552809737194
H          -1.23666420479407    1.05624241987535   -2.51431843926298
H          -2.64729935557334    0.35976779268136   -1.54342886296415
N           0.88609708457520    0.26690219201158    2.04927175269417
H           0.21360427764602   -0.57154817232121    2.04078019389176
H           0.56931999384329    0.88306021597250    1.24774706970710
H           0.88193047981417    0.76498821031332    2.93239213630327
H           1.84543935066159   -0.08430437263505    1.78637359087117
