    26
        -50.47679057  Gyration_radius:  2.36809601637 Dipole_moment: 3.211
 S          -0.34787362323861   -1.17753904956030   -0.94407840728135
O          -1.45885044481218   -0.25180878984600   -0.71992359675177
O          -0.33896729819464   -1.56515222711766   -2.44024165863716
O           0.92648113132031   -0.50235288232722   -0.64953868606512
O          -0.49297096062469   -2.38755181805464   -0.16198116512569
O           0.57418387001379    1.79258170706322    0.68789877469025
H           0.73347055306885    0.97754584563321    0.16908126140492
H           0.15614752670471    2.39425250317492    0.06133438135306
O          -1.49038815347631    0.51204790608417    1.83846086731683
H          -1.74842831190560    0.21798961157267    0.94174277708209
H          -0.77932131714166    1.16433933246522    1.65981166430067
O           2.27256289948387   -0.55891039130924    1.67412582544221
H           1.99374742583989   -0.65971088773488    0.74220264887062
H           2.26923890479951    0.39035200673611    1.83196839929406
O          -1.03786702168117    2.14738844116248   -1.65342850480916
H          -1.27105831036924    1.25810878069247   -1.28715301193891
H          -1.84913127168107    2.50945776830285   -2.01230687373897
O           0.77035703226027    0.69223368470071   -3.07136724084903
H           1.33064579172477    0.48622756437639   -2.31080719716773
H           0.03232003511820   -0.75829206582844   -2.88460793842720
H           0.15862902740889    1.38529013025683   -2.75492503105541
N          -0.08009752761084   -1.63392863373482    2.29385653266022
H          -0.25812424995425   -2.26652233699134    3.06576893595260
H          -0.26179450372836   -2.09572831927470    1.35361828568698
H          -0.71938393064206   -0.77324069048695    2.30223307685944
H           0.91647270731828   -1.29707717996098    2.26825588092971
