    26
        -50.47441758  Gyration_radius:  2.50825005444 Dipole_moment: 3.663
 S          -0.27977250299846   -0.94768151980453    0.50890016505245
O          -0.57649208311118   -2.36716705507814    1.03544479837752
O          -0.94424973887060    0.00094714182511    1.38872301414643
O           1.16222644612879   -0.74868952107871    0.48272969437645
O          -0.83850368318037   -0.84772170979269   -0.85122892974958
O           0.44656221787369    2.07517584581065    2.27541968562420
H          -0.03289491632871    1.25234402174482    2.02764225755102
H           0.93770546310421    1.86459002229879    3.07058331815575
O          -2.09167598929574    2.36286699622198    0.79572281465318
H          -1.54511015950636    2.87446603394440    1.40202053836703
H          -1.96646855050013    1.43650878161775    1.07941816050991
O           1.69209782387105    1.77401714721803   -0.11613720070471
H           1.43114690615206    2.13977966794575    0.75066787468273
H           1.69924810017182    0.80415553295722    0.03949632786488
O           0.13951604184477   -2.76055606687134   -2.40137640067133
H          -0.24496160828834   -2.00851235286812   -1.90148217116641
H          -0.59644253707170   -3.32688917435568   -2.63984516948267
O           1.47339684491708   -3.34164321276640   -0.14124751273603
H           0.17267168264429   -2.91734403310678    0.65297573350055
H           1.16035420980364   -3.31063957032742   -1.06979094123595
H           1.85384583338046   -2.46637565302711    0.02982675224557
N          -0.61901020577344    1.71370469240350   -1.31771840008970
H          -1.28480713304374    2.13803420630723   -0.61809247002913
H          -0.75634105847610    2.07489286956437   -2.25509837945294
H           0.38153522069262    1.86513924613365   -0.95537275211907
H          -0.77357662409426    0.66659767308745   -1.27218079767816
