    26
        -50.47679055  Gyration_radius:  2.36804756617 Dipole_moment: 3.213
 S          -0.43783360227780    1.08292963634375    1.01749769754447
O          -1.25916092864404    2.38907586261566    1.10849637435685
O           0.38224823499489    0.97797603139269    2.20631722541465
O          -1.37343813418179   -0.03669644699349    0.90512049295423
O           0.39093074731872    1.15950108017468   -0.19656592652825
O           2.82327675173072    0.07542295379170   -0.54824453662862
H           2.06954762089183    0.69076256520630   -0.44996066105884
H           2.59370016992836   -0.47850449139757   -1.30096255368876
O          -0.01679877314032   -2.32515425648498    0.67610721364183
H           0.13077900458783   -2.15002710296752   -0.27814251418809
H          -0.66767902577450   -1.63905392985120    0.92667785611487
O          -2.51233700282705   -0.23058732831365   -1.43368688920935
H          -3.42289038847067   -0.51224761297581   -1.33567114665883
H          -2.13006869699676   -0.21064118600164   -0.52107898874222
O           0.21697130801559   -1.06192865731601   -1.68514595901377
H           0.27387140756825   -0.22386548993117   -1.18196361653249
H          -0.67899533717218   -1.06423307209777   -2.04100220851002
O          -1.68351116336121    2.36013463400036   -1.44966334371337
H          -1.56867866948634    2.53122548050428    0.17561479975145
H          -0.74044511881501    2.14842558418370   -1.47662620570188
H          -2.13811598624404    1.51501138091124   -1.63333814173517
N           1.98094429095349   -1.01778670601248    1.72545306571823
H           1.25179826581834   -1.72083065296101    1.37393282968150
H           1.41237403544662   -0.18601814710559    2.06474459223613
H           2.57277861662475   -1.39417789854289    2.45740790157903
H           2.53073238351512   -0.67871223016929    0.89468265292528
