    26
        -50.46294831  Gyration_radius:  2.43461007053 Dipole_moment: 6.329
 S          -0.53536725126998   -0.74761041946446   -1.09439703121322
O          -0.60779505542157   -0.51741389384849    0.35806108352705
O          -0.70399418419196   -2.17963455307401   -1.35313917457971
O          -1.68146350671388    0.02321582105282   -1.77076542636915
O           0.72130440776278   -0.25316205194232   -1.63335164503883
O           0.84310801736221    2.24332158336598   -0.67851043039224
H           0.78759276305889    1.42565936081344   -1.20748108307183
H           1.27797153845662    1.97236791628653    0.14311229431842
O          -1.53872034782868    3.16227061547111    0.08910322979483
H          -1.84832572365149    3.75470886575600   -0.59739555434551
H          -0.64538881214794    2.85803082178985   -0.20267267192657
O           1.32515645119741    0.71421097995822    1.62959783294316
H           0.96648249324731    1.16948204601464    2.39274546723268
H           0.56188980448322    0.27475306326086    1.18237215502696
O           2.55377916262185   -1.15756782188265    0.02668751087627
H           2.04228839797648   -0.79867583949748   -0.73562413794767
H           2.47525941710510   -0.47438577316605    0.71035258757035
O          -2.88564210808784    0.87554592371315    0.29203885014118
H          -2.52430900697793    1.79408517439376    0.29595522172464
H          -2.30212821033239    0.36666922761983   -1.04298998192763
H          -2.21866759376539    0.34295608351893    0.75168958482773
N           0.79622427643592   -3.00541930700312    0.51522275918553
H           0.30728933934220   -2.79864772703988    1.38148541008555
H           0.11238235735997   -2.76269203029751   -0.31761999167457
H           1.61953910714260   -2.30913919608381    0.38371153686406
H           1.10153426682702   -3.97292885966765    0.48181162438485
