    26
        -50.46485780  Gyration_radius:  2.56505262394 Dipole_moment: 4.112
 S          -0.76760660008988   -0.50759488232391   -0.10182400936155
O          -1.14609463180760   -0.71620383767970   -1.59087347749604
O          -1.24675756915620    0.80989482818512    0.30364844787564
O          -1.40643434474029   -1.56807076943689    0.66742016379021
O           0.69226906920330   -0.58247442364859    0.01045458969528
O          -1.88539404371190    2.06936827283587   -1.94056937128586
H          -2.22500899433625    1.31083574331120   -2.42274815376437
H          -1.71716159700554    1.73327283921904   -1.03585987497989
O           1.90705666318065   -2.31314167167854    1.57640330231527
H           1.55786537526940   -1.65391326621603    0.92993414809762
H           1.92502744296679   -3.15074005563465    1.11066667134193
O           0.28903799395997    1.13341132534684    2.39054406106614
H           1.15044468001700    1.17550438702527    1.96685474013530
H          -0.35728891704211    1.16254580647416    1.64496944763631
O           0.61665717599773    2.52371702785363   -2.76382534699573
H           0.57555894149643    2.98356660029671   -3.60357403648996
H          -0.30985887579698    2.47490813458253   -2.42990889022193
O           1.10475252377420   -0.09211564236114   -2.58245028126275
H           1.41343196714188   -0.21307884968103   -1.67093095631743
H          -0.30179265437062   -0.51833870528006   -2.11962728188242
H           1.04394614729782    0.88235592078275   -2.71799072299500
N          -0.18967065642770   -1.40414321232016    2.92232662737899
H          -0.60705854860628   -1.71984259530551    3.79046595305749
H          -0.82820366671744   -1.55155945368155    2.06934029861911
H           0.01608635021966   -0.36275654282811    2.91674290463459
H           0.69619676927241   -1.90540697782874    2.68041104741207
