    26
        -50.46400253  Gyration_radius:  2.56965547113 Dipole_moment: 5.314
 S           0.25749125555077    0.11882386941387    1.10977727651745
O          -0.93992608574982   -0.73989556102718    0.99097666482859
O          -0.12020408926888    1.51114434802615    0.90462728110619
O           0.77518234577120   -0.01405817989743    2.56101431773946
O           1.30084260913943   -0.31809548502019    0.20257487437114
O          -0.28218372814667   -3.23556743164741    1.63150140092391
H          -0.80805197404892   -3.44620404526097    2.40506757303615
H          -0.58259112834869   -2.35278073660794    1.32842610671868
O           1.13783677393788    3.04724585586860   -0.88258362543835
H           0.70318706512433    2.55411208051437   -0.15777972851668
H           1.99693962145844    3.30882356319019   -0.54779384866008
O          -1.37655898541771    0.26793252293287   -2.93106095326299
H          -1.40723473619502   -0.66295649257310   -3.15852492250087
H          -0.40199829357646    0.47506912719487   -2.77696532258377
O           1.07575073247407    0.70956951646743   -2.26697891389577
H           1.23085911343757    0.22391442924287   -1.43280655306500
H           1.15579141434838    1.64877226740826   -2.01317504714820
O           2.13267765890921   -2.11690357495304    2.02685669461723
H           1.36273001213918   -0.83057918727205    2.53992480225817
H           1.39594343849350   -2.75465171277000    1.92202399586379
H           2.23708090722579   -1.70826451107329    1.15407509054640
N          -2.21256152799972    0.87655734906961   -0.53623915799180
H          -1.55979989137636    1.59126910740913   -0.16317225071248
H          -1.96429354710365    0.65741057019868   -1.55986033690764
H          -1.92240028158510    0.04756280435402    0.06754621328298
H          -3.18450866920041    1.14174952683461   -0.41745159112879
