    26
        -50.46516736  Gyration_radius:  2.53850697195 Dipole_moment: 5.804
 S           0.35954013137033   -0.17732124495809   -0.47528385727671
O           0.20807655748535   -0.35606232228998   -1.89622392656504
O          -0.55367701496730   -1.00641329879747    0.30609091743706
O           1.74249692716415   -0.36106364080921   -0.00609375320179
O           0.05624749434159    1.30856415894520   -0.10075061508570
O          -2.59998110219837   -0.72926000882401   -1.37336497688097
H          -2.17210570238143   -0.95600589427996   -2.20379803323127
H          -1.94688531991671   -0.95307324048723   -0.68314876044656
O           1.99237987114574   -2.49880911687848    1.62676204430856
H           1.99313645291571   -1.78730024874823    0.95597489381747
H           1.75881969975458   -3.30164692951136    1.15832170333054
O           0.01250259944803   -1.16831221830173    2.86338541907692
H          -0.43685756444364   -1.15776566348373    1.98601723796437
H           0.71203572643582   -1.84127378320085    2.73483486814624
O          -0.66958934450943    1.53077392786608   -3.55156867759457
H          -0.30673514948755    0.77605967103474   -3.04229758527392
H           0.08598206130936    2.00679903608422   -3.89818987144114
O          -2.08700834708166    1.87923036633928   -1.28697900784430
H          -0.83243403878525    1.58614877399201   -0.55225010924763
H          -1.74583652659150    1.98384427379710   -2.19740074647705
H          -2.51673021440975    0.99175824304651   -1.28445676611088
N           1.40956708618294    0.88169461906362    2.21408115126696
H           2.20101572195526    1.15238688969425    2.78898845087959
H           0.80053860405355    0.08429980384391    2.66832038687708
H           0.82469210539214    1.67878541582323    1.96819803935328
H           1.71080928581801    0.43396245104035    1.28083159422443
