    26
        -50.46152704  Gyration_radius:  2.59891642867 Dipole_moment: 7.382
 S           0.61089426071966   -0.37390564936317    0.14039687177571
O           1.54120665619954    0.75755878752072    0.23069227306775
O          -0.28103305523281   -0.39894064745825    1.30030842507762
O          -0.26263933953831    0.00495627918221   -1.09524911207796
O           1.25983778937166   -1.63897965909615   -0.09374235934910
O          -1.12833746711561   -2.89052884606676    0.89361032931050
H          -0.29077427153135   -3.34008538870299    0.75012905432139
H          -0.88265361428135   -1.99743593184383    1.20167648696516
O          -1.89363609270547    1.61259528964533    1.37332295217788
H          -1.96123089088574    1.85475566879963    2.29902055700952
H          -1.37018678656960    0.76586220682789    1.35639868352569
O           1.99681707433726    3.17553584213459    1.50723942003914
H           2.02751931973610    2.24852445931980    1.21685683170906
H           2.80859356625270    3.33343348873816    1.99030275468795
O           0.79178006403936   -3.11586938202595   -2.25169633149854
H           1.06084929909043   -2.64033303684208   -1.43736609148026
H           1.38756923485990   -2.81974649100656   -2.94078049606456
O          -1.61079074779048   -2.07056512705289   -1.60065433858112
H          -1.67045420619761   -2.46018558429589   -0.69829891723275
H          -0.86411296353977   -0.79516059335837   -1.33016826847583
H          -0.91094651359705   -2.58814212539373   -2.04549879247669
N          -0.08562943179627    2.70937494993324   -0.17661148065020
H          -0.36825853058645    2.92329495987300   -1.12715437086183
H          -0.91529971251722    2.40641722442069    0.42003528187623
H           0.58547774290739    1.86376976444165   -0.15586779298035
H           0.42543862636297    3.47379956167958    0.27309842019257
