    26
        -50.45436518  Gyration_radius:  2.67940126666 Dipole_moment: 6.680
 S           0.82051231438226    0.28875633650815   -0.33067066690774
O           2.02282455773713   -0.20305336965678    0.30650022516502
O          -0.28183137384910    0.47922559358194    0.77906662713447
O           0.98485697722408    1.56767048042516   -0.99063608294850
O           0.20426240112386   -0.69787692434819   -1.22898056623218
O          -1.27595820128733    2.66877411185323   -1.51699063035815
H          -1.15336915799328    3.05231234103186   -2.38803186570163
H          -0.37002956188023    2.34806693899486   -1.24294703517249
O           1.00208571903225   -1.13575290206606    3.91773159144893
H           1.12264199855039   -1.67804607785105    3.10660322824872
H           0.08206662543994   -1.23488039465490    4.16677719993430
O          -1.11153979619936   -0.79814547198879   -3.65392436179875
H          -0.71988385706535   -1.25918161626179   -4.39648319861590
H          -0.45595731170515   -0.83155981835474   -2.93583266102530
O           1.30175293501988   -2.39949063933010    1.56210804156162
H           1.54333065957771   -1.60899636795851    1.02911192267586
H           2.03075697919299   -3.01394306103927    1.45874094646591
O           1.39550512677864    1.16545978007537    2.58043590722354
H           1.32060671499872    0.42314822143664    3.22259223149648
H           2.06326138448828    0.88125691948797    1.94010531411838
H           0.22995851116039    0.85222552826047    1.55780762464560
N          -2.19573787313394    0.22170975882716   -1.38115620689049
H          -2.87282171464372    0.01179640958446   -0.65597326228933
H          -1.97676313399486    1.26751862910674   -1.43471317887893
H          -1.24265620265732   -0.23467457038780   -1.16935046763088
H          -2.46787474029425   -0.13231984528881   -2.30189066567282
