    26
        -50.46051247  Gyration_radius:  2.40432690124 Dipole_moment: 1.282
 S          -0.72409916455687    1.05198399986807    0.52450949321593
O          -1.34648636042033    0.27566652159420   -0.54070089402097
O           0.04399666947387    0.16261620501487    1.41308983148794
O           0.12743606660877    2.10705900595880    0.00773789060478
O          -1.83697169881062    1.70454759130784    1.37906282871358
O           0.11828351711402   -1.64431993683685   -1.45782152369286
H           0.20645341284310   -2.14332639227164   -0.61067726690165
H          -0.53375640961041   -0.92295405488689   -1.24077244746051
O           0.87545338014493    1.89437046925951   -2.46819409355078
H           0.46315833674687    2.01661114143065   -1.57452051740724
H           1.28430997181902    2.73139558480284   -2.69488286799472
O           0.26747370373767   -2.42285071315281    1.07464362632129
H           0.12226004194155   -1.47175858178236    1.29102513205910
H           1.11063647797109   -2.65608375767265    1.46731276411906
O           2.45421044067769    0.63030502286155    0.59227761536090
H           2.43604248259585    1.58965322478677    0.52707170551246
H           1.58188958278116    0.41163315675473    1.00981140755169
O           2.11025395678346   -0.23467835368470   -1.78594037078317
H           2.35007931863010    0.05328152176515   -0.82989322501940
H           1.24684354532036   -0.94611422737588   -1.68465755275202
H           1.68941843092067    0.59069831994580   -2.20483706940467
N          -2.89554200665469   -0.66885225787305    1.62450539635334
H          -2.61686327517020   -0.75353149942909    0.65081203155524
H          -2.37925592230706    0.90777388251755    1.64100466059326
H          -3.85312235731266   -0.98171304008614    1.72081952785727
H          -2.30210211126772   -1.28141283281629    2.16921394767608
