    26
        -50.46358194  Gyration_radius:  2.42849238541 Dipole_moment: 7.208
 S           0.26908843548956   -1.39854253490494   -0.52977671544181
O          -0.73290680147874   -1.96123008573416   -1.38690351179296
O          -0.12085610257264   -1.46499902439959    0.90047036340123
O           1.61760387054992   -1.88200941823952   -0.71115926689955
O           0.32265465538925    0.17057770552574   -0.78167974032312
O          -2.81872604270773   -0.33669711409411   -1.61143710980026
H          -2.21212024408887   -1.10506307195005   -1.61232744688773
H          -2.77476181764503    0.00570654718402   -0.70542580738116
O           3.37647326349219   -0.23190225577856    0.20270985258437
H           4.18973120913432   -0.73369454908465    0.27968804064345
H           2.73353771911034   -0.83647642915459   -0.25859607824663
O          -2.12897503524859    0.17581927486451    1.07106742065505
H          -1.40884260353303   -0.50008101724749    0.98671511999814
H          -2.77376789581114   -0.19407808564013    1.67662962000719
O          -0.15762324558718    2.09410874914209    1.15349591081857
H          -0.99883365479715    1.61187811387555    1.25062124119451
H           0.11772668161167    1.89468700341579    0.24877798978749
O          -0.93372560586349    0.96622314419554   -2.90028952873427
H          -0.06015841863267    0.38700638010450   -1.67500140197437
H          -1.75977889576738    0.50500972560929   -2.60056638676976
H          -1.12552223828430    1.90602186637228   -2.88711592381522
N           1.49498756878295    0.19514026517652    2.01308217328547
H           2.35542987363324    0.15482135314958    1.40656956834304
H           0.95511208384863    1.08271436475389    1.82365760685919
H           0.85615381767831   -0.58954253663792    1.65079093737790
H           1.71809942325645    0.08460164962034    2.99600306305073
