    26
        -50.46358187  Gyration_radius:  2.42818683636 Dipole_moment: 7.205
 S          -1.16567262105533    0.58371689493490    0.78198755939605
O          -0.07560470886304    1.58535597554474    0.67985104169619
O          -1.33581046768986    0.10902257264149    2.12401743923481
O          -2.35357013782359    1.05577685466152    0.11024093903733
O          -0.59858175569683   -0.60806045458342   -0.10483537473681
O           0.61012363122898   -1.56337400522855    2.79905946996915
H           1.30442571266043   -1.11633226508909    2.29107431252463
H          -0.13872562197813   -0.93278735168922    2.79696213212829
O           2.07334587480736    0.20825868899970    1.16885108882528
H           2.67208504936569    0.75137878005535    1.68432526988113
H           1.24628970180993    0.74204226796726    1.05220891060424
O          -2.09934493388399    1.02288392434921   -2.45608745134662
H          -2.80167441725657    1.58056528966444   -2.79490439112854
H          -2.27132950254177    0.94295459069342   -1.47849755089489
O           1.81746373386202   -0.55487873624292   -1.46160099474721
H           0.99507515684785   -1.02863214039025   -1.27958610690455
H           2.16774470719162   -0.35105045344943   -0.57521764261537
O          -0.73450507790011   -2.94100794113167    1.00861751842435
H          -0.80475266056859   -1.48261323150569    0.32405096471347
H          -0.15601166409198   -3.58576708885733    0.59664453201415
H          -0.25527656858792   -2.60154692641397    1.80867220507539
N           0.39503368041644    1.66015664408819   -1.84574448268935
H           0.19490746855875    1.77043097590723   -0.79561804565403
H           1.04392570421152    0.82911482936172   -1.90424848836716
H          -0.53513197815168    1.42863348747385   -2.28278297062281
H           0.80557167512593    2.49575883821689   -2.24743987382840
