    26
        -50.46516751  Gyration_radius:  2.53892832941 Dipole_moment: 5.798
 S          -0.46447798873115   -0.12528470077782   -0.39169397383415
O          -1.37255861453662    0.62665994261637   -1.21865781598956
O          -0.66167908197555    0.28075491522595    1.10369807716883
O          -0.74215910696530   -1.57072662643639   -0.38132600690325
O           0.93841849726647    0.11778162416715   -0.71545136219311
O           0.61148464445934    2.71575123668059   -1.19221419547063
H          -0.12980716031065    2.68652934654839   -1.80346276619107
H           0.88797119053051    1.78547783008735   -1.08545184121215
O           1.25259858378346   -3.00547617408763   -1.50396654899907
H           1.35732364606804   -2.76240990888511   -2.42506891984998
H           0.45036685667002   -2.54082421511762   -1.19304109764081
O          -2.96689585201393    2.55178499802560   -0.31245721804486
H          -3.80889270040619    2.16081541387244   -0.07631359834727
H          -2.44967585886118    1.84287278113089   -0.74901867191161
O           2.63447786796215   -1.59692414441886    0.32017179539363
H           2.20395105495263   -0.79930252854032   -0.06705914337223
H           2.46161946287363   -2.28160167857331   -0.35803547208850
O          -0.69901803992496    2.79539578978276    1.12076128896676
H          -0.66446976234646    1.31369673860215    1.16630717324009
H          -0.09922204101613    2.97266780537004    0.35844893893611
H          -1.59773876925076    2.94669490659821    0.76590094026270
N           0.56902724881470   -2.04648842219835    1.77229749606354
H          -0.09562459749187   -1.96958451720512    0.92686922085210
H           1.55684964078111   -1.90997143879465    1.30504026202377
H           0.34889222455632   -1.25534737080060    2.37529842137938
H           0.47923864509842   -2.93294159286766    2.25842501776681
