    26
        -50.45675031  Gyration_radius:  2.50023112087 Dipole_moment: 1.683
 S           0.02282405926941    0.19953181581808    1.28897812996672
O          -0.69030079385991   -1.01928791652829    0.88140506066489
O          -0.77931357635151    1.38361600347727    1.02179750876202
O           0.21587209012920    0.06845626676024    2.82654484847129
O           1.32998311269935    0.26790779746990    0.66104628241380
O           0.60004786714897   -3.03233095805024   -0.26377223485964
H           0.20468679381404   -3.82309704895145    0.10649784820492
H           0.25566974503965   -2.28182054970585    0.26790204442003
O          -0.16723273722066   -1.81979863854725   -2.47756887976704
H           0.45118171215842   -1.03695487091938   -2.42665444968668
H           0.17629561180187   -2.43866042762947   -1.78490713242209
O           1.45227637134467    0.15190680301493   -1.95001828279197
H           2.37779690780188   -0.01990019728950   -2.13255196553638
H           1.38718473490569    0.23360904024007   -0.96744458124258
O          -1.99689477130683    1.61007447139020   -1.25718541928518
H          -1.47188893536540    1.61386642481693   -0.41405859482136
H          -2.80085799257034    2.09807863954059   -1.06936368971874
O          -2.09415461630467   -0.94059879810390   -1.23305221097921
H          -1.66031271680616   -1.01357242576300   -0.31757642000866
H          -2.13532879398619    0.06347436080338   -1.39377500218955
H          -1.26313729930574   -1.36008665949778   -1.90969580801744
N           1.40835685292998    2.37070138692566    2.57089161724657
H           1.97971837483308    1.94625244693588    1.84780349200637
H           0.69949091558894    0.90674498910957    3.03346421248622
H           1.91653540036948    3.14234900308280    2.98532391267470
H           0.58150169321565    2.72953906157786    2.10596972401323
