    26
        -50.47103788  Gyration_radius:  2.51744128992 Dipole_moment: 3.744
 S           0.42194699573810    0.49607310715690    0.99550235786882
O           0.39597328466823    1.51294061216656   -0.06382209714178
O          -0.92879974859941    0.05507655334003    1.31571504720255
O           1.08429426815833   -0.77991591730511    0.33040381501190
O           1.21967154861687    0.86934522715026    2.13077634241039
O          -1.92200812966133   -2.26160755372390    0.55720021675784
H          -1.70558018211214   -2.95134012453179    1.18568431675621
H          -1.50390905891894   -1.43818783802352    0.90397831961095
O          -3.28824427094806    0.32733276857979    0.07610106848389
H          -3.53561031335631   -0.60184842181447    0.12940428681255
H          -2.56640688190877    0.42606253138403    0.72745392199529
O           2.80177225955255    2.47471188279269    0.78405712547239
H           2.10753283286720    2.66477187429070    0.14214211127930
H           2.31028014060836    2.05167019790586    1.51765672817107
O          -0.44980694354745   -1.91778668567686   -1.67115003328896
H          -1.08696324024651   -2.25778617503730   -1.00983312423323
H           0.33974132227885   -1.71269358676043   -1.14712576902039
O           3.51756769329394    0.03117857479390    0.14168973284596
H           3.38854725864652    1.00755730099859    0.28501497125029
H           4.00362282038613   -0.27968315298197    0.90885635843684
H           2.04523050535887   -0.51951748433824    0.22395031856418
N          -1.33997482649886    0.57125325593036   -1.72481311828082
H          -1.44923278464333    1.07768353791979   -2.59648296782554
H          -0.61149129432584    1.03956567823939   -1.09034551862204
H          -2.23641040066611    0.54160977805604   -1.17127758850938
H          -1.01174286474900   -0.42646597050610   -1.88073682201240
