    26
        -50.47103790  Gyration_radius:  2.51772347604 Dipole_moment: 3.745
 S          -0.53194939686608    0.97724376277473   -0.42047864744231
O          -1.09460365194792    2.28858966843353   -0.58937863588285
O          -0.17683524383633    0.79131479144271    1.11212523248989
O          -1.44720936080958   -0.12126469606214   -0.69758125690926
O           0.73630885119205    0.78617439418416   -1.13576364146528
O          -1.97568695651951   -2.04677563047289    1.01742869260501
H          -1.83141360580622   -1.27243685795216    0.42353934368721
H          -2.68791008084956   -1.79709426803024    1.60728597735477
O           0.59603692314315   -1.78138124414706    1.77124138432434
H          -0.32328391573380   -2.10167581767966    1.66580667533853
H           0.49794094399000   -0.82026545270550    1.85357109671402
O          -1.12129372715783   -2.55265411845358   -1.77674521143491
H          -1.58614841390712   -3.03108835061977   -1.08214000227510
H          -1.39154237055055   -1.62150715490884   -1.65530757803875
O           1.20411899501420    3.47214250178642   -1.04536011554212
H           1.58244299884106    2.66531468512832   -1.41388943489575
H           0.24533405096777    3.27423625049181   -1.02445321307796
O           1.14586965008266    2.95715280070112    1.52893033852250
H           0.35160695932762    1.61227942429585    1.33439844499050
H           1.32279476478606    3.23791075510304    0.59064894497838
H           0.54751281012336    3.61699833730895    1.88666713887320
N           1.21546052739338   -1.72673450631431   -0.79838031765120
H           1.11022881307729   -1.85556195290312    0.25042677175612
H           0.40766178669125   -2.20947628109702   -1.27288458497293
H           1.09440505339709   -0.67787584008688   -0.99332106669968
H           2.11015359598613   -2.06356520019765   -1.13638631531732
