    26
        -50.47362563  Gyration_radius:  2.40494790988 Dipole_moment: 3.721
 S          -0.54506946567853    0.38593236961703   -1.30605145414956
O           0.40578233328437    1.25976268327395   -1.96334862921384
O          -1.54995368981191   -0.12031437132848   -2.36423155412624
O           0.14899185092739   -0.80128867665256   -0.76124414203879
O          -1.28009859488723    1.04828675563495   -0.23739695429267
O          -1.63694482329990   -2.52977529555892    0.15113835309377
H          -1.64601300915334   -3.33621980005787   -0.36658335745096
H          -0.93669088924380   -1.96074471197385   -0.23644370496807
O           2.72556177079790   -0.77211484552813    0.10224696804541
H           1.91937310031628   -0.94291988377379   -0.42048280119133
H           2.49017289528048   -1.02671935473212    1.00192084407343
O           0.45032483833630   -0.77325566127398    1.91183753771642
H          -0.24485816705549   -1.31856310387282    2.28544838055594
H           0.27671608528685   -0.76020347165494    0.94805785096426
O           0.32182770554403    1.93684455521293    1.68321086096183
H           0.41663604274582    1.06227590802948    2.10236203743299
H          -0.39811664309143    1.79855300964223    1.03089018529185
O          -3.36137051468002   -0.57593728987988   -0.60004872927281
H          -2.37142775137644   -0.33860289695081   -1.83581703976343
H          -2.97772536924577   -1.37863983021225   -0.19596584101486
H          -2.92705287623165    0.17147732824902   -0.15791763790702
N           2.17786652185269    1.81993129311797   -0.15152871586470
H           1.52744761837288    1.70619851066949   -0.98620751548916
H           2.85583475421137    2.55908891212121   -0.29878133207890
H           1.53025549229871    2.00836658939819    0.68123541299343
H           2.62853076448643    0.87858128851499   -0.01629902232001
