    26
        -50.46683762  Gyration_radius:  2.38186795846 Dipole_moment: 4.804
 S           0.07703627973362    0.61133536026285    1.15437572678775
O           0.17115005088336   -0.94448008287193    0.81066561822095
O           0.27006254832079    1.28378735836597   -0.13901810628194
O          -1.23567305295461    0.84036476120653    1.70459454191925
O           1.18892657536737    0.84254463009116    2.04375567256874
O          -2.96138258033268   -1.17733498526962    1.51405143166430
H          -2.37122341838305   -0.40670482142247    1.65667686836661
H          -3.11162874549077   -1.55754444770946    2.37985212497314
O           3.01496732456227    1.52871267375144    0.35932179605652
H           2.50300287806069    2.12855324692295   -0.19226295460693
H           2.42147123054431    1.35710293371561    1.13839208309113
O           0.63578052900362   -0.21587239440760   -2.30303904580296
H           0.43282662675150    0.49421842877921   -1.65567732282388
H          -0.14054955773332   -0.78669719075058   -2.29692459625816
O          -2.27384055629246    1.34449789174570   -0.85669393346443
H          -1.34318785065134    1.53163900800955   -0.62186344750534
H          -2.75903463320520    1.45551915670901   -0.03399373628619
O          -1.73017689318612   -1.23951126532387   -0.87941924686241
H          -2.37201129412165   -1.57316178962430   -0.23105693321313
H          -2.02358306906443   -0.30289534275709   -1.02978279288939
H          -0.57373531697628   -1.11702701150248    0.14582117476510
N           2.46881087558621   -0.84936911313449   -0.54164525947187
H           1.90125522587226   -0.71345342520736   -1.42958375528603
H           2.85172070091550    0.11487180197026   -0.24139785821337
H           1.76060336848725   -1.10092552501213    0.17687371111368
H           3.19841277427215   -1.54816983647668   -0.63202174052669
