    26
        -50.46404610  Gyration_radius:  2.46009741707 Dipole_moment: 6.110
 S           0.71850478932956   -0.54605476122969   -0.88877505881129
O          -0.73584527344877    0.01023104920325   -1.06441178727687
O           0.66773946956891   -1.34188888313083    0.36023752040925
O           0.94174152071155   -1.37447087593502   -2.04548067893118
O           1.61676823976938    0.58032921672057   -0.75030038953673
O           0.44116174134947    0.26067957746460    2.50855529107783
H           0.61430238194462   -0.45171025866160    1.86764423611954
H           1.24745533839613    0.81331651446000    2.46689106019033
O          -1.40294324068722   -2.36026029483530   -2.43974286599621
H          -1.85102871474394   -1.62340199864743   -2.86227077270255
H          -0.44741246806248   -2.07761624273899   -2.39303997801574
O           2.55050942141299    1.68813977130623    1.59756467631959
H           2.46593804769957    1.17886040042371    0.77453923672836
H           2.24996164192782    2.57435369458409    1.37499559960143
O           0.70934897089393    3.04108597545098   -0.32965796468801
H           1.08613892603572    2.16532208215521   -0.56733329674192
H           0.59524424425806    3.51722295992334   -1.15264199127497
O          -1.18115599349225    1.52395063064477    0.89366767168181
H          -0.65189126747320    2.29380503353990    0.61362598918696
H          -0.94962684643003    0.64378563996487   -0.27821740388550
H          -0.65711540811322    1.09970576162135    1.62956652663369
N          -1.64033031705860   -2.34188879058656    0.15838289669623
H          -2.30050448443397   -1.65037497481328    0.50385151639118
H          -1.78891018304848   -3.24317967548200    0.60155820469807
H          -1.68455285413899   -2.41010198718474   -0.91574937074880
H          -0.61349767216304   -1.96983953422363    0.33654115287554
