    26
        -50.46683805  Gyration_radius:  2.38170043138 Dipole_moment: 4.831
 S          -0.07288042657146    0.35218237640526    1.25743002545422
O          -1.25993845701805    1.13151406853249    1.50650673870447
O          -0.38025581136554   -1.00104412103402    0.77117466632086
O           0.69147028641258    1.04724341431797    0.04078330477561
O           0.90516585853112    0.32591118907033    2.31738902575222
O          -2.72730994533913   -0.43519502526592   -0.30636124129721
H          -1.96953105946922   -0.78981272001624    0.19995807772466
H          -3.10143913722626    0.24515885080367    0.26086965694373
O          -1.84987833706899    2.98937395636827   -0.30608406154624
H          -1.67108322478002    3.85857945143016    0.05342619501369
H          -1.67827655245820    2.35555324752315    0.42290958732603
O           1.97200243260783   -1.98767548906778    1.92720041164502
H           1.17452048826896   -2.50605751501144    1.78061932175390
H           1.63047979489638   -1.11444232809633    2.25782659774039
O           0.36561068483177   -1.65809854264160   -1.69376210842963
H          -0.06149025396747   -1.58339415821969   -0.81256384113467
H          -0.04713506122807   -0.97129181316415   -2.22895901782237
O          -1.05099455484470    0.92045212693894   -1.83118783669503
H           0.03496622342453    1.03064876543250   -0.73100574476683
H          -1.76290481385566    0.36482738936986   -1.41827368575946
H          -1.37583016794640    1.82778760801996   -1.70723928885690
N           2.48847144701933   -0.88119525267732   -0.36950642299038
H           1.81568760354952   -1.31099001055694   -1.07079911003635
H           2.41221098650453   -1.44150510940606    0.55062566056551
H           3.44168761098239   -0.81888762761031   -0.71061066534565
H           2.07667439609798    0.05035724858688   -0.16036627496994
