    26
        -50.46293997  Gyration_radius:  2.6556902213 Dipole_moment: 5.940
 S           0.37099100262427    0.06946548136229   -0.53820979279186
O           1.78750038915211    0.04479957768146   -0.79161707458673
O          -0.13705737529301    1.53953314580682   -0.48035774218051
O          -0.45194754038597   -0.53912381452250   -1.58371818325292
O           0.02280780514943   -0.52144914580695    0.77071892893868
O          -3.38356169584666   -2.63791440438618    0.01805031336069
H          -2.44307326394013   -2.92938725463698   -0.10348933373152
H          -3.87876126548878   -3.02905911318062   -0.70337872880559
O           2.14526490476632    0.48695981657152    2.06396847560155
H           2.85574160628404    0.22808527010676    1.47041122694619
H           1.35371988975922    0.02831525990167    1.72724881895098
O          -0.79579131635502   -2.94644949949913   -0.43485537479946
H          -0.32241876399998   -2.68769982144949    0.36285156115024
H          -0.62967020349096   -2.21189670677762   -1.05671132111765
O           3.29356613616354    2.24353848656752   -0.96282920994692
H           3.27977440311011    2.54029810808692   -1.87373105258756
H           2.84166023760981    1.37523887501438   -0.95338374109291
O           1.49251991437612    2.83105463809140    0.95347527783360
H           2.23900658727092    2.88929828174966    0.32343136240835
H           0.48248137372723    2.12197887105639    0.10688521036124
H           1.75250639272048    2.11541296332769    1.57669465884002
N          -2.42629908938185   -0.17931870817365    0.03247166992958
H          -2.94916653355218    0.67506257324671    0.19345499243592
H          -1.89681849787497   -0.17233934291516   -0.88189051512765
H          -1.59583934340561   -0.27170604373097    0.68180493251606
H          -3.00713576370164   -1.06269747348450    0.08270463074893
