    26
        -50.47017062  Gyration_radius:  2.41341038885 Dipole_moment: 3.302
 S           1.38964390167521   -0.04231712963535   -0.78674639911610
O           2.77989467497941   -0.18079906590448   -0.44226967871944
O           1.04220062328796   -0.23236503128651   -2.17274922826493
O           0.65366173488036   -1.18018693028798    0.03924633356843
O           0.82200853853097    1.21932877261438   -0.25835129221004
O          -1.78597957413116    1.31709405538493   -0.53707450548234
H          -0.80744402968011    1.39423322708185   -0.43588483053156
H          -1.93323100797151    1.49569427946541   -1.47733301850966
O           2.67992948204769   -1.13524639609373    1.97197665318619
H           2.87643450707367   -0.77516168273886    1.06863344275399
H           2.35300627801293   -2.02343410141671    1.81169784105264
O          -1.80185563932920   -0.17725702163152    1.84528465196035
H          -2.03336248605362    0.48672826727328    1.17740082889993
H          -1.84604419828751   -1.02374160406793    1.39080892033200
O          -1.23060692800227    0.69376760492272   -3.13408089844000
H          -1.06859324207406    1.04307244383965   -4.01069004278438
H          -0.35560915835972    0.37557669499053   -2.81157771101514
O          -1.71005846529907   -1.30862065554466   -1.01959939806883
H          -1.59843301019759   -1.38969496270946   -1.97129334963540
H          -0.22923309559980   -1.31855837808883   -0.39517673779015
H          -1.91461168538676   -0.35422402983869   -0.87470238751452
N           0.74166658311079    0.63264462467085    2.24137240552095
H          -0.22653856031054    0.23518469242069    2.28344104786786
H           1.48272874521942   -0.12627878677342    2.30310945481423
H           0.83895332766229    1.02492338879454    1.24929284877383
H           0.88147267420567    1.34963772457042    2.94526503934552
