    26
        -50.46294012  Gyration_radius:  2.65583770938 Dipole_moment: 5.938
 S          -0.11721528428422   -0.57134985693657   -0.30309072301500
O          -1.22891295714011   -1.11018816860066   -1.04139445685736
O          -0.49596556115336    0.60462167768909    0.50771786613513
O           0.58918913500873   -1.53760746396143    0.53827329944329
O           0.98103387525777   -0.06546278465964   -1.28317246305877
O          -1.38828463861823   -1.06841186282498   -3.70699718152227
H          -0.96448533433291   -1.86039757295299   -4.04025323433290
H          -1.42653129583142   -1.16988973532261   -2.73413145495166
O           1.56342317175612    0.09614622411202    3.99513545696728
H           2.00643257725273   -0.57994459175569    4.51023283083825
H           0.68062864907688   -0.28159952161282    3.74567829819180
O          -0.59785487172096   -0.93975508799108    2.87633528813877
H          -1.10717606834809   -0.21937816971256    2.49034618199745
H          -0.20600903411989   -1.39189487931465    2.10431754430483
O          -2.16621939351147    1.62990914867816   -1.32365621313583
H          -1.62581888577183    1.36695673500786   -0.55617536778913
H          -2.69965265313916    0.85722574820683   -1.52992992473910
O          -0.18783159607995    1.26271180416840   -3.08552828021331
H           0.56706981328395    0.50089549232575   -2.04216174935906
H          -0.59208332459862    0.52377302343015   -3.58362155911182
H          -0.92688776941650    1.63233493576566   -2.55134213686175
N           1.91873597716299    0.49054699731115    1.41075670118920
H           0.99171830759513    0.91282178167035    1.12382876027311
H           2.70692604112083    0.95278794691722    0.96984933459735
H           1.97091250370073    0.45083408566771    2.46724649889870
H           1.75485859689289   -0.48568591535115    1.04173668396976
