    26
        -50.47144232  Gyration_radius:  2.41519797341 Dipole_moment: 3.965
 S           0.24968212014400    0.46613011904752   -0.80220247687649
O           1.48756819919737   -0.16813906831222   -1.50763603508985
O          -0.29269602107283   -0.59174914052623    0.07098881820022
O           0.78532346129776    1.55759519123366    0.01348610630960
O          -0.70839588806976    0.89509527052710   -1.78460533993229
O          -1.24926119135723   -2.30965969167949   -1.74447884172365
H          -2.20368061736105   -2.21742190049603   -1.74712475980557
H          -0.92232611484487   -1.74274956271084   -1.01917287156443
O           1.97907453860513   -1.40544997939838    1.16738230190434
H           1.10434495596316   -1.29862531426412    0.73938328191832
H           2.61473543156387   -1.29731210373514    0.45593317373094
O          -1.40501696052109    0.26414435084923    2.37962984994296
H          -1.20251557972253   -0.30321418804458    1.61404980985772
H          -1.76370798480328    1.07318631174384    1.96628547831789
O          -1.76796363706501    2.23848067925436    0.54834682706568
H          -2.19089108356420    2.01181677456546   -0.28398403247348
H          -0.81977275961454    2.23313934816050    0.34097333104253
O           0.16838631084143   -0.91351514444972   -3.56644897261839
H          -0.36109584623829   -0.12189654385899   -3.38274891911211
H           1.14811410713203   -0.51925819501565   -2.38762899323285
H          -0.31919809307081   -1.64211701555208   -3.13185157475925
N           1.15785110547493    0.77186080457977    2.45647923540352
H           1.12087050544662    1.24888154546053    1.50610368184776
H           1.64285948803166   -0.13346346542547    2.26102650644940
H           1.61983843602998    1.33054653911005    3.16482097262071
H           0.12787310757764    0.57369437893676    2.67299343257696
