    26
        -50.47064469  Gyration_radius:  2.48584988635 Dipole_moment: 4.189
 S           0.01451261312950   -1.02511314335916   -0.71016728695473
O          -1.42758306508656   -1.09199704998187   -0.51505126021742
O           0.39960070624801    0.15224296542984   -1.48555884471054
O           0.70035765705495   -1.04020814732913    0.58473651260404
O           0.43354816151367   -2.28656302605882   -1.49511341919617
O           0.03155310522222    0.93676446200636    2.20814477422047
H           0.04399984924575    1.65260263402522    1.55015133207374
H           0.44061728631920    0.17637792679566    1.73931819684200
O          -0.22964192707373    2.28842860106775   -0.17384389149419
H           0.03657661757851    1.48193919791340   -0.69159525025447
H           0.23950947347498    3.02344093099847   -0.57224412545395
O           3.31340438083078   -1.03007526686698    0.20700117302136
H           2.35538829839175   -0.99916248064895    0.42430962756168
H           3.67287770093717   -1.77345619447015    0.69362271294988
O          -2.84842421196096    1.51839093184126   -0.40413064466125
H          -2.65304248581986    0.73499184821304   -0.93326845776317
H          -2.00716807594641    2.00959115613171   -0.36749859961323
O           2.56756083112505   -1.16423834247750   -2.36515765514349
H           1.30084346732214   -2.01815075484580   -1.91798151775939
H           2.00843411255058   -0.37264775715863   -2.35931954833472
H           3.08412357762573   -1.11511029131092   -1.53341278607175
N          -2.32560901339727   -0.02179098361861    1.66755555243323
H          -2.93154078269750   -0.47435328346855    2.34147233323846
H          -2.80357623049829    0.72226376515432    1.10235469204964
H          -1.43635609384896    0.39648607307041    2.09656336836319
H          -1.97996596223840   -0.68065375105342    0.90911300227013
