    26
        -50.47103780  Gyration_radius:  2.51751872146 Dipole_moment: 3.748
 S           0.40993760232798    0.01535641757793    1.11572181695310
O           1.13154824604096    1.02683084092457    0.33270753972162
O           0.42589155110105   -1.29167654799663    0.22094099070658
O           1.03902505111508   -0.29719405537736    2.36915291408741
O          -1.00406119056883    0.35199511158389    1.20870512297691
O           3.45802576817916    0.35394842808944    1.58344771253851
H           2.68309310837981    0.16456233875368    2.15119354307942
H           3.10916907238341    0.99248311536700    0.95042090901776
O          -1.04344549767932   -1.06181601398711   -2.11185380327954
H          -0.38710153276293   -1.41280176985199   -1.49043993371676
H          -1.88148235802621   -1.08852254943406   -1.60599132712209
O          -2.89025803307551   -0.87024887409441   -0.16114425823589
H          -2.18165622666943   -0.48402233244224    0.40600226955759
H          -3.20071311032444   -1.65043793585046    0.29986805080759
O          -2.56458048875226    2.07849872779205   -0.11882326887283
H          -3.26829376027901    1.44951407800836   -0.30971668992424
H          -2.04555714603717    1.65630807153455    0.59351860255790
O           2.90442680562775   -1.94231452787882    0.43615370025288
H           3.27838092852791   -1.09382260708859    0.79783493819659
H           2.99069746702041   -2.58437049679781    1.14446203588715
H           1.38004031683943   -1.59304153102508    0.26058272720143
N          -0.46515667650785    1.47533439647203   -1.64406755514583
H          -0.11582335408231    2.08430724161692   -2.37572659343519
H          -0.68503181214091    0.50151574479773   -2.00561369559555
H           0.25628324188224    1.35649345002687   -0.85783891419729
H          -1.33335797256494    1.86312128943026   -1.18949684398892
