    26
        -50.47771700  Gyration_radius:  2.36998191728 Dipole_moment: 4.700
 S           0.49162276797406   -0.64685776998146    1.22623849651878
O           1.69059627970328   -1.31173687565564    0.76776050889681
O           0.59099502507264    0.80982274122247    1.10929643474503
O          -0.68839644879797   -1.13423906021556    0.49929253645766
O           0.28002637563976   -0.99138107470210    2.72487169966865
O          -0.82372897690199    1.64277219102513   -0.96024793877804
H          -0.28694889014222    1.45484459263957   -0.15818043262114
H          -1.71448213107036    1.34774859295230   -0.72318481005229
O          -2.84774863963964    0.30457655903467    0.46084467389859
H          -2.06956144111416   -0.30627852388222    0.46117476510682
H          -3.62342432045937   -0.24783945708537    0.35569122248051
O           0.46026768083100   -2.23716043187965   -1.57415575304751
H           1.27688911740516   -2.49724181785300   -1.13405786003015
H          -0.11275936746204   -1.95177255644312   -0.82660157133437
O           2.78733446749273    0.64170772762270   -0.59818306944183
H           2.56382054603769   -0.16179894224105   -0.07414839293687
H           2.46124175004556    1.36102112152419   -0.04692084788467
O          -1.48336934872032    0.95055385348851    2.80774119668028
H          -2.19424493946821    0.82433607864414    2.15722905012795
H          -0.44772995878660   -0.38195199450147    2.98940775231053
H          -0.75749184107246    1.35487953228404    2.30887059947755
N           0.88813970867303    0.23983101908389   -2.39158234312090
H           1.74770130809290    0.46827228555566   -1.80818298504601
H           1.02806937939604    0.44820374465646   -3.37379687961434
H           0.68739918036698   -0.78996349672700   -2.22460787178133
H           0.09578270687264    0.80965195143085   -1.97456820067920
