    26
        -50.46564932  Gyration_radius:  2.44829333618 Dipole_moment: 6.113
 S           0.40556060844709   -0.93171013488552    0.52037888088961
O           1.44472652101881   -1.84092058538455    1.00414877022277
O           0.96814038918784   -0.42760097907541   -0.84137192888866
O          -0.86970089641827   -1.57741340661653    0.29325231832344
O           0.27860242282807    0.24333826257120    1.38176445658754
O           2.24644395390410    1.74732708898805    0.63961295635973
H           1.47775274394363    1.27311808626521    1.05127082906182
H           1.88318907853463    2.20208703612555   -0.12474211376613
O          -2.43114171331037   -1.04883811725607   -1.88481214056391
H          -3.21806522453008   -0.81984728114801   -1.37996742880395
H          -1.83589382455683   -1.46741797536189   -1.23906223878937
O          -3.22521205304654   -0.46731666953155    0.91861198385497
H          -3.51598798777520   -0.71402245422849    1.79724306033156
H          -2.37234949165933   -0.92797693276269    0.77300345036122
O          -1.71783777184725    1.79802233391032    0.51054625358812
H          -2.48419890778312    1.21347917606402    0.63745327340667
H          -0.99274620218279    1.34841426956958    0.98446238396074
O          -0.78378534216044    1.05467580617697   -1.83425765638248
H          -1.44370665736383    0.37351764757549   -2.09543486329451
H          -1.17467238052993    1.49639932430366   -1.03493903326979
H           0.26261921947203    0.19382419238358   -1.29529629045324
N           3.46402658406833   -0.54405383077417    0.23780766061679
H           3.58650961690262   -0.74719181954398   -0.75011228526370
H           3.09755027013762    0.45314645671803    0.35771951432559
H           2.62832967448053   -1.18415509876952    0.61444379127468
H           4.32184738024809   -0.69888436529079    0.75827638628908
