    26
        -50.46312439  Gyration_radius:  2.52452645991 Dipole_moment: 7.091
 S           0.25150432694117   -0.09143467589164   -1.32289860376835
O          -0.95445968042423   -0.54639998776362   -2.01499657689882
O           0.03892655531397    1.22944810178315   -0.72159697363745
O           0.38510445005552   -1.09056119083542   -0.11301947922227
O           1.44606979105377   -0.16980339859186   -2.11655657407551
O          -2.15743089301750    1.85507350659497    0.48154632680167
H          -1.28809164445559    1.65695772810404    0.03698138965285
H          -2.46137560341553    2.67862512954205    0.09700147162870
O          -1.55753710786505   -2.30097578527874    1.31492613045957
H          -1.44665502047388   -3.25107393411813    1.25413099263079
H          -0.75156464116322   -1.90653026224604    0.92586314085494
O           3.81072976451099    0.19830320318673   -1.03808458523514
H           4.38727042121639   -0.43044053894618   -1.47509042860949
H           2.95693674436586    0.16418743750325   -1.52691560477305
O           1.19237941773092    1.95816962606265    1.56263753434200
H           0.42056388291436    2.00841628749522    2.12985679946916
H           0.85015766874971    1.82348393038313    0.65472216133437
O           2.42632635464645   -0.38177802764599    1.15388398996603
H           1.24881603345354   -0.83122010831222    0.40536358027930
H           3.08670001527225   -0.17701992187893    0.45187168661037
H           2.13245360883900    0.49251136953557    1.48917921571307
N          -2.84106552435296   -0.58596131478030   -0.31865521043635
H          -2.56049355307896   -1.29584855282070    0.38973225284065
H          -2.78489607190271    0.37334608201209    0.10104766635746
H          -2.06948316182064   -0.60036627591956   -1.10214243494089
H          -3.76088615310319   -0.77910841717447   -0.69878783734834
