    26
        -50.45627833  Gyration_radius:  2.7676170045 Dipole_moment: 7.599
 S           0.77969388871248    0.41641405029963    0.21998202692585
O           1.42922245333083   -0.53836744153739    1.10718998277263
O           1.57792182520924    1.57085283628324   -0.11363095056100
O           0.52892020801992   -0.40217209172829   -1.10648734055993
O          -0.55736486210597    0.77447682944502    0.71711407193021
O           2.37102634410797    2.18946983712169   -2.57287006884989
H           3.16145476263771    1.67939472896026   -2.75401958856561
H           2.16696055634760    2.04207185547299   -1.62466911518059
O          -1.46094575809639   -2.00171383340712    4.25582810977762
H          -2.08721174751767   -1.37193807799169    4.61996473821065
H          -0.65465974706093   -1.93687348325292    4.77307757181569
O          -0.84890824304134    2.90644915178444   -0.84850000403497
H          -0.87835171075062    2.17845964265877   -0.19671909508647
H           0.00461836801023    3.32519293409875   -0.70399992678725
O          -0.90441640440557   -2.71086368665602   -0.90803984328420
H          -0.41138095035309   -1.89195584226911   -1.11094742207666
H          -0.49396540160503   -3.40749393820939   -1.42194155052611
O          -0.15384404385524    1.28796317381700   -2.84673889899948
H           0.72755969884001    1.67008071692073   -3.03393048790636
H           0.22124060317875    0.25039043364627   -1.84995095201837
H          -0.59291202733217    1.95157556554247   -2.26415132609153
N          -0.81795461383115   -1.63901212382878    1.55845283817870
H          -1.14849490804166   -1.92359073056896    2.48991826188624
H          -1.05762505019120   -2.29907310230261    0.79995284291142
H          -1.13308147956104   -0.67343267513436    1.29081715338898
H           0.23249825934879   -1.44630472916532    1.52429894272918
