    26
        -50.46492169  Gyration_radius:  2.56424550343 Dipole_moment: 3.251
 S          -0.36027248073335   -1.14405233192551   -0.02095783072943
O          -1.02234099010074   -2.49567414431711    0.33182495468382
O          -0.39346223467606   -0.29235913191359    1.15992339836561
O           1.00733394520855   -1.42235555853486   -0.43779753282596
O          -1.12829579941971   -0.54245090768689   -1.12341895718731
O          -2.85925122208980    0.18810352426387    1.99438952411402
H          -1.91949545789465    0.11281757387696    1.71987057711150
H          -2.88052153054587   -0.02642195296371    2.92846772921269
O           1.53328024969740    1.58626206726568    1.20843484244672
H           0.76855640463771    0.98286899889830    1.28130403932103
H           2.30503687949027    0.98997099017874    1.16829712885400
O           3.17103458212702   -0.55712436006897    0.87000863347304
H           3.33941574906415   -1.10526180694059    1.63789188735121
H           2.41610264965173   -0.96922702547605    0.40353704352202
O           1.29672460337935    2.73245003738333   -1.09509925257485
H           0.52049770067341    3.28950786946370   -1.01489462283080
H           1.46317120335860    2.36867719817215   -0.17135866674801
O          -3.38031937149273   -1.54422400738809    0.01835546536396
H          -2.96922828016028   -1.02867746242936   -0.69005349879493
H          -2.00650430392475   -2.30499001480717    0.27140934788200
H          -3.43809849933630   -0.92619776087636    0.77859812384984
N           0.92477666459120    0.43647608272431   -2.28612529240955
H           1.09741491248785    0.37644163712609   -3.28395544677123
H           1.46393563980085   -0.26689906843603   -1.74935789361373
H           1.11735472588936    1.41667031644902   -1.89189763188025
H          -0.06684574968151    0.14566924796841   -2.00739605918501
