    26
        -50.45808746  Gyration_radius:  2.56488120061 Dipole_moment: 7.870
 S           0.77222662869579    0.16923902605375    0.77412376255365
O           1.82043899097102   -0.25082657554879   -0.14328914122971
O           1.16130133790231    1.39428274415702    1.49150195544411
O          -0.41318547759413    0.62273652164415   -0.16715812042982
O           0.28618945509297   -0.86387809162312    1.64915904767971
O          -0.79469353483988   -3.04632177931696    0.42188914534930
H          -0.42076559462860   -2.86629364646700   -0.46107349772953
H          -0.34088737732592   -2.41589380467055    1.00703388481449
O           0.26656327839515   -1.77525260492124   -1.73965836443614
H          -0.41151402979856   -1.11588946692836   -1.90591863760304
H           0.95118948529246   -1.31940916872803   -1.21952044204082
O          -3.22409469050597   -2.02774641334358    0.43323220765112
H          -2.34385719226883   -2.48659850681111    0.37136925198072
H          -3.78574162740958   -2.60659584308973    0.95033514896649
O           2.78012271683054    1.56634979672464   -1.74234540077401
H           2.44719504022378    0.79068452435270   -1.22168975942955
H           3.73272073851546    1.56155772824828   -1.63193111324707
O          -2.21693914855322    0.15796360581062    1.52797633426875
H          -1.23817172739789    0.51956825373223    0.42499612913472
H          -2.72949218203747   -0.58867802716460    1.12304971622165
H          -1.51820547630341   -0.26680149086303    2.04810480334642
N           1.03828535024907    3.01829199893936   -0.41410253624467
H           1.11452039864803    2.38557099653147    0.51709902744233
H           1.15175282747061    4.01008608091613   -0.23309164711971
H           1.79006804649637    2.62493742313411   -1.04774147112049
H           0.12497377388381    2.80891672923677   -0.81235025344837
