    26
        -50.46981918  Gyration_radius:  2.46636232414 Dipole_moment: 5.185
 S           0.43598014962594   -0.88479829624903    0.00952862881690
O           1.33730951326671   -1.44840869835649   -1.11449552403338
O           1.31397271599075   -0.16258155708423    0.91602754620247
O          -0.48857386008591    0.08566085512801   -0.63959155963324
O          -0.30554218259521   -1.95586819337375    0.62600762020944
O           2.83113004910705    1.67203059925636   -0.21134976074858
H           2.39697750970653    0.85945711906098    0.13569896087324
H           3.60786975306999    1.81181364251706    0.33278965009938
O          -2.11692293173503   -1.44330564104728   -2.12104666031256
H          -1.53343092272135   -0.80948195920499   -1.66102441714345
H          -2.91696042523649   -1.50246934719963   -1.59507759764808
O          -1.93509914269082    0.06195462353434    1.63734468724639
H          -1.72161764132811   -0.83908844898416    1.90147689111137
H          -1.58815829964162    0.12166193586893    0.73185474399963
O           0.05973605667640    1.68947212824047    2.43258446090624
H           0.68151639007997    0.98040805487807    2.18341280180201
H          -0.81258510266376    1.24553739990167    2.40977027250528
O          -0.27445337494937   -3.36897279148199   -1.65438596395208
H          -0.99650350955800   -2.85887792229317   -2.07216856793413
H           0.84389803615486   -2.24187479024817   -1.47868702880083
H          -0.44777099749383   -3.31240818670733   -0.70132952506585
N           0.31534198477332    2.50452869414527   -0.03066304294210
H           1.34698335511549    2.47415429985305   -0.19649759624972
H          -0.12919867860077    3.32117897389197   -0.43441384527180
H          -0.06177116138094    1.59962015152446   -0.43218887952710
H           0.15787270697008    2.40065735446218    1.02642371539382
