    26
        -50.45627842  Gyration_radius:  2.76687533835 Dipole_moment: 7.563
 S           0.57599277730005   -0.52071688061013    0.47506264995093
O           1.45665417600193   -1.65364037875255    0.32647741623545
O           1.00017171939541    0.56854300358380   -0.58590914167420
O          -0.82441269537728   -0.84532100456821    0.16334039172700
O           0.68069672360636    0.16993114069368    1.75274323437559
O           3.37663437840166   -1.83887841557709   -1.50094915721122
H           2.72650190238664   -1.86581041130265   -0.76679151869576
H           4.14478993446288   -1.38256053289182   -1.15524310099115
O          -3.42139275966854    1.21869903062066    3.32071143556585
H          -4.12342521144709    0.57970909970124    3.17859515167114
H          -2.97674446586574    0.97986417636444    4.13745389498225
O          -0.38824862672435    2.91308317274493   -0.60762277842839
H           0.15690672463106    2.10985819657804   -0.71910943586745
H           0.20853007302026    3.65804601151128   -0.68969147021141
O          -0.25978464335567   -2.58041093505340   -1.77359335161452
H           0.41735646593200   -3.09793921966581   -1.32819320062523
H          -0.62274082178057   -1.99957019089438   -1.07607304188446
O           1.30484407324262   -0.66465786569920   -2.76227998927394
H           2.16995263421925   -1.08251798528737   -2.57531845400154
H           0.64709127418078   -1.38781350493385   -2.63199738337663
H           1.11551162970595    0.11062468994373   -1.50817937875095
N          -1.51523105579314    1.36192827254008    1.28044163833521
H          -1.36080520113121    2.18124422472662    0.66955150429239
H          -2.27125355498394    1.48055491869694    1.96770369741134
H          -1.63451249291837    0.50343584347262    0.68653633691776
H          -0.58308294743763    1.08431554405897    1.72233405114080
