    26
        -50.46437153  Gyration_radius:  2.44650216756 Dipole_moment: 8.384
 S          -0.24682996928483    0.95741191962807   -0.63628234813480
O          -0.89184708310610    1.52834955924294    0.52637191861903
O          -0.77894300761306   -0.50178031107707   -0.82661572108640
O          -0.61680399332371    1.60895018621349   -1.89282671361776
O           1.20012901511113    0.85512726704746   -0.48421139093675
O           1.85369712215072   -1.20382852972675   -1.89760842730982
H           1.64823303491919   -1.93785286644800   -1.31289849179764
H           1.77633887048421   -0.39064898060231   -1.33367967819184
O           1.77504407705615   -0.21220481407543    1.91607443669770
H           1.78005392061466    0.24683891301086    1.05706750867105
H           1.39690782824086    0.44307531357734    2.53539251280673
O           0.18170817815000    1.65833346215405    3.06764021429380
H          -0.11250692883545    1.87516549633622    2.16798956133027
H          -0.55792399412655    1.19157415120258    3.46809577089664
O          -2.16448756131080   -0.02062604903656    2.27391369250956
H          -1.77654855059492    0.59698114297131    1.61622945690232
H          -3.10191222976778   -0.06335680235862    2.08287545251916
O          -0.26546331416297   -1.71606536248514    1.30924546626943
H          -0.97182329788519   -1.34229030103165    1.86728336938537
H          -0.57799221638829   -1.04366953276724    0.03384786264840
H           0.57508355730759   -1.27176582407577    1.61980195969963
N          -0.02654949991289   -0.26646188617870   -3.47065728998738
H           0.29061021563738    0.02427045606192   -4.39039677914730
H          -0.30501474743463    0.61374979143836   -2.83926454569047
H          -0.83610227368061   -0.87640434381752   -3.53559138557932
H           0.75294283775162   -0.75287204519694   -2.92179642176405
