    26
        -50.45347619  Gyration_radius:  2.54121915868 Dipole_moment: 3.046
 S           0.12024002715977   -0.92033021459352    0.34772319514005
O           0.77668332435292   -0.36205356338496   -0.84387519797205
O          -1.28083170729448   -1.23623593524228    0.03069802027668
O           0.83102452055025   -2.01988404645131    0.93284143273961
O           0.02776898158407    0.25953889338335    1.36866185433134
O          -1.28527126329371   -0.92491744194660   -2.53878034767809
H          -0.33217294275708   -0.79275395416848   -2.62782142992736
H          -1.37123036955398   -1.24064193661390   -1.60242311105025
O           3.18906588930122   -1.83739944136442    2.15251674959600
H           2.36082052035908   -1.99722330835147    1.65249882256318
H           3.13238624463841   -2.39862407909705    2.92726279327508
O          -3.19287551759130    0.47392168838865    0.20728549128294
H          -4.00088235620015   -0.03694254616104    0.28118790844969
H          -2.44532145914984   -0.17916005661811    0.30255192637393
O          -0.16566752679647    2.01141623169760   -0.82830451080828
H           0.29946450815526    1.12514656862106   -0.89758415476942
H          -0.37034178210499    2.09497917231831    0.10966199917845
O          -2.27263771419549    1.31640768297871   -1.99320191062508
H          -1.91803712914529    0.39620268979679   -2.37207613418932
H          -2.80399119673614    1.04979320281260   -1.15132223673946
H          -1.40591341998156    1.75142297305364   -1.58503611804505
N           2.51650574325542    0.75796250481902    1.24091564720072
H           2.97403576400661   -0.01807325782082    1.72041563547080
H           3.00200814398991    1.61723368959164    1.46338514477298
H           2.59154313555309    0.58026398238410    0.24557545860862
H           1.02362761190661    0.52995051195916    1.45724306255782
