    26
        -50.45722688  Gyration_radius:  2.57842764483 Dipole_moment: 6.710
 S          -1.17920405102595   -0.00841564728883   -0.07330050672041
O          -1.36826641788296   -0.71063546963477    1.17069337613048
O          -0.88028743519564   -0.91850712652245   -1.20368956463131
O          -2.24369235961529    0.90484667757745   -0.42452198308808
O           0.14366215706588    0.83992964341890    0.03383961295474
O          -1.75443296077396    2.38018780448118   -2.47686666329096
H          -2.54368856606669    2.32557891873602   -3.01910247489787
H          -1.98848518310773    1.91772989356359   -1.62255107628349
O           1.88856455416924   -0.13615328305543    3.36287393098064
H           1.63398243877649   -0.88733953492884    2.77230827951476
H           1.85089799169398   -0.48049421031965    4.25643192106186
O           0.89852502353727   -2.03672032454873    1.80231676526784
H           1.29650204420024   -2.14937863127356    0.92255783586034
H           0.01345693877860   -1.66157233683385    1.63665390080439
O           1.34763308513164   -2.34506851236618   -0.91165111308262
H           1.14550093878917   -3.27088111718477   -1.05955577138678
H           0.50122149260945   -1.86315871715225   -1.01366370852685
O          -0.14664209670483    1.34629070131664    2.49513214262522
H           0.65430739583452    0.92607814383534    2.89516957489527
H           0.12715376034570    1.18422778300058    0.98756651189762
H          -0.82759003249287    0.65866362983141    2.48301060640974
N           0.31608325897378    0.80246268116049   -2.64339785747873
H          -0.45671715711037    1.53002837836389   -2.75882734139940
H           0.99028393342806    1.14864463418743   -1.95956700591654
H          -0.18103393703766   -0.02998214661589   -2.13722491243003
H           0.76226519367869    0.53363815825139   -3.51463446927226
