    26
        -50.45722678  Gyration_radius:  2.57882965477 Dipole_moment: 6.710
 S          -0.95363685637149   -0.36094034243564   -0.59337725139131
O           0.02742816648648   -0.40234234487026   -1.70304515226397
O          -0.31225793802359    0.69599294866470    0.38280044053310
O          -2.21155546741936    0.18787554735745   -1.04791042147801
O          -1.05660442340570   -1.61755123062462    0.10426229618967
O          -2.05627369250976    2.56773543222080   -2.01833524586385
H          -2.22322602048008    1.68733332550154   -1.57637677816332
H          -2.54910951707463    2.53592309691305   -2.84055061764806
O           1.33719812596490   -2.23605510620772    1.19140855669448
H           0.45481458866956   -2.14876698810379    0.78476213854066
H           1.93740488814299   -1.74356436099851    0.60636269895454
O           0.81720878969358   -1.20108485561137    3.57577375602969
H           1.12946131431189   -1.57783272611391    2.71641846346820
H           0.74388199261761   -1.94383394233628    4.17690199773094
O           2.52244006989281   -0.94420636091417   -0.95065794541595
H           1.60272912609875   -0.78989268339610   -1.24949847379617
H           2.85614959237274   -1.66928790568224   -1.48240377493250
O          -1.40701217995902   -0.26096810187923    2.45292211892163
H          -0.73173874451631    0.47494256517153    1.27904990933005
H          -1.62031811377492   -1.02567575578330    1.89941382051927
H          -0.62833371314028   -0.53208927622366    2.99915496548626
N           0.49612956442675    2.09595330071048   -1.75955157642062
H           1.21355019743085    2.47803097700736   -2.36756611005649
H           0.71202950576604    2.24578934455264   -0.77319705016887
H          -0.48350866771682    2.47275322113805   -1.95507737600020
H           0.38314942251926    1.01176223193733   -1.85168337880353
