    26
        -50.46954178  Gyration_radius:  2.39868615731 Dipole_moment: 4.985
 S           0.28463873985515    0.60275651882532    1.44451092589149
O          -0.70710556335728    1.23306679009681    0.54795796501995
O           0.56816716073195   -0.76211157172937    0.99509217773170
O           1.59285563410415    1.43320713336043    1.25903128681781
O          -0.13676803513350    0.65470265881646    2.81725272063200
O          -1.70269444278893   -1.45370067089528    2.57784041785079
H          -1.02432817383964   -2.12642168631836    2.47339947199216
H          -1.20167884703210   -0.64050775471575    2.82079155951518
O           0.58326059860065    2.44895416512169   -1.37964936938248
H           0.01606203806925    2.08837317454619   -0.66073476957007
H           1.33653448412671    2.84048999576273   -0.93109974669361
O          -0.47206403663274   -1.72929078510445   -1.24548991286342
H          -0.04438539461451   -1.15860274626915   -1.90304230373178
H           0.00421510979104   -1.52813807926521   -0.41209740405640
O           1.10093012849746    0.16181717910790   -2.58657461281330
H           0.85862658790767    1.04857628651358   -2.21571751258392
H           1.34495018681893    0.30588906440689   -3.50170098066012
O           2.74761955304484   -0.19559063370085   -0.39906017391699
H           2.18997774557373   -0.81773509475575    0.09487391104271
H           2.32101602034317   -0.11499435807997   -1.27209582915279
H           2.16361453741798    0.91335222616495    0.62766361413117
N          -2.41274126243198   -0.65057094161988    0.15331213575385
H          -3.37928482675439   -0.50664347231602   -0.11548358490618
H          -2.31385858865863   -1.10181885645878    1.10476074727210
H          -1.85148516361953   -1.20314709396207   -0.55381053803465
H          -1.86607418999997    0.25808853243156    0.26006981470079
