    26
        -50.46251704  Gyration_radius:  2.4601815768 Dipole_moment: 4.382
 S          -0.94578212464502   -0.30890415819080    0.20558544135513
O          -0.55316682135700   -1.62134883825157   -0.30772381995963
O          -0.08488440753663    0.06804153847502    1.35289623463475
O          -0.71615634551683    0.71499589406647   -0.87561591810117
O          -2.35884567764729   -0.25779245893594    0.59828770798907
O           1.68713345040397   -2.80172650764549    0.38968138930516
H           0.79563883041821   -2.41511003981991    0.21140564495475
H           1.58982390910912   -3.33531620993435    1.17877419653295
O           2.37520571569565   -0.19638792174680    0.54946499297627
H           2.42826775407241   -1.17241007596143    0.53813179964392
H           1.49836491694419   -0.01580740423514    0.97483734087891
O           1.54009444917154    0.34824297818686   -1.75434385625836
H           2.03145523089468    0.18967519476982   -0.83810399035200
H           0.51727259781775    0.58123625021968   -1.41781018012906
O          -1.49112001208539    3.15937613104643   -0.31450191487566
H          -1.14326849954249    2.28094829601009   -0.60685122774300
H          -2.13975508808155    3.41323060195357   -0.97272101859617
O           0.99906063711348   -2.07279269690752   -2.39763031043157
H           1.43246887695390   -0.57591743549150   -2.17173363005030
H           1.60977793836713   -2.67131246853429   -1.95454938638833
H           0.23267180878122   -2.00283801064047   -1.78602966647313
N          -1.88467797815276    1.79013473622243    1.92863973090021
H          -2.30419947045000    2.05840924920808    2.81093861480666
H          -0.94016480945568    1.34212386892293    2.01752248058249
H          -2.35407068943644    0.93338686961818    1.40599789343907
H          -1.82114417183572    2.56786261759567    1.23545146135973
