    26
        -50.46100997  Gyration_radius:  2.42024411745 Dipole_moment: 3.536
 S          -1.27926017805679    0.18550208260178    0.44975195632380
O          -2.63063983986926    0.83895705410619    0.82344098110356
O          -0.81053754453787    0.81157557761566   -0.79494854643231
O          -0.33418264506090    0.41893030884843    1.52898719050117
O          -1.52198526025626   -1.23803963264386    0.24912023710889
O           2.01449491687563    1.27872166570954    0.79126018664297
H           2.51183862646968    1.36772315365426    1.60613890134708
H           1.09962902667054    1.01239886920492    1.05499087816930
O           2.37118152758532   -0.92562029562160   -0.63910449382783
H           2.39572140152379   -0.04845406891633   -0.18584559866683
H           1.90079341298554   -1.52357931234557   -0.00973869686996
O          -0.78496248536326   -2.69670123605192   -1.81420507347764
H          -0.26784928919222   -3.37817714231202   -1.37634511031468
H          -1.26492400806720   -2.22566449338022   -1.09630108504539
O           0.79125593033038   -2.23046398840022    1.06595558046685
H          -0.10816472082808   -1.92579660935913    0.81940740261452
H           0.93396411021901   -1.86186537266438    1.94035526548024
O           0.57759443626302   -0.59454280795140   -2.32258728302050
H           0.06174556372848   -1.47544212270050   -2.29187604874023
H          -0.01568323109721    0.06124968255923   -1.77573607892085
H           1.43891597303361   -0.73611060582161   -1.68090613595637
N          -1.39284057796197    3.12991293439700    0.75076412159668
H          -0.75767278063064    3.14809039255516    1.53791699948166
H          -1.65451563755476    4.08052489592017    0.52279501935097
H          -0.89770998995450    2.72383532455937   -0.03762654211982
H          -2.37620672725484    1.80303574644215    0.88433599320358
