    26
        -50.46251706  Gyration_radius:  2.4599503288 Dipole_moment: 4.390
 S          -0.15363892199559   -0.99212660351141   -0.15882551578577
O          -0.89155951329014   -0.29514010678399    0.95461022102698
O          -0.84878115512260   -2.24947682713726   -0.45805648022016
O          -0.19537858808737   -0.09450657616798   -1.33863582740257
O           1.23100415452384   -1.20320287249231    0.26359165321331
O           3.21916815143803    0.25811891254446   -0.63583159854628
H           2.49488977532245   -0.36359922392627   -0.38085694959919
H           3.59382092547944   -0.09157535602121   -1.44470146664206
O          -3.46012478657435    0.07623787009248    0.56095148440810
H          -2.49999987330553    0.00810033566637    0.78810774773938
H          -3.92652849307191   -0.36685275632331    1.27127804415272
O           1.17797761339058    2.02246673483529   -0.70595578657726
H           2.07610652190013    1.63867556327783   -0.74699750249970
H           0.60040865196546    1.30176336510150   -1.06553167827488
O           0.49189729161495    1.59455784246924    1.67053389189531
H          -0.19028661255653    0.76928270243266    1.41116435630915
H           0.78263192979067    1.93326594754048    0.71816059919995
O           2.47078957778874    0.06279107669082    2.22374850108201
H           1.30303764878324    1.10423594413299    2.04677305022158
H           2.02698281264633   -0.61520301911835    1.66737609177338
H           3.24169373680858    0.33008396730647    1.71204145525628
N          -2.56916563158848   -0.96585937706711   -1.71535305845369
H          -3.05709038910839   -1.25481245387047   -2.55490937824664
H          -1.97086192823154   -1.74684185938705   -1.20560232855712
H          -1.75927572877748   -0.32119755828103   -1.88609936110378
H          -3.18771718974031   -0.53918566200482   -0.99098014436866
