    26
        -50.46092008  Gyration_radius:  2.40592028372 Dipole_moment: 8.109
 S          -0.65226714183964    0.43848177937975   -0.49980560719228
O          -1.64349926994705    0.82117930965496    0.46509611189088
O          -1.12306641693843   -0.63510142139120   -1.39546587127941
O          -0.08477092595803    1.54537772632327   -1.26789470533646
O           0.59277348985366   -0.17556705731452    0.23250120093577
O           0.91305268824419    2.47100900369116    1.17451097538799
H           1.67956267355656    1.89368133027622    1.15086003969618
H           0.46298099122644    2.34087269525687    0.32786544024858
O          -0.16080301260022   -1.22007438935071    2.34264120161192
H           0.32162616219245   -0.65391517536205    1.15336705700423
H          -0.98226964052372   -1.61887345489793    1.97922171292745
O          -2.25802389010877   -1.84909016036222    0.77530548325399
H          -1.89661429547122   -1.57133063532024   -0.08363655280486
H          -2.86708725139270   -1.14453375982258    1.01548538131393
O           2.49799522530291   -1.19091831993934   -1.37881962197161
H           2.63202963081566   -2.10916688898384   -1.13703442324740
H           1.91463401150957   -0.81014852156925   -0.69073911792791
O          -0.85636108430782    1.23910576811407    2.98749258058903
H          -0.12895023523610    1.82930454775990    2.73896740997038
H          -1.39960341291251    1.21899761649940    2.18030260168638
H          -0.42727527411470   -0.37883505578232    2.80251262174907
N           0.72089694758045   -0.09744353467995   -3.03753100523394
H          -0.12990798980971   -0.57346744575160   -2.58868327640837
H           0.60774141236297    0.82982230015139   -2.53105079369427
H           1.57422014808023   -0.57030826700751   -2.66680148923035
H           0.69298646043707   -0.02905796955202   -4.04866736393455
