    26
        -50.46658018  Gyration_radius:  2.39990768661 Dipole_moment: 4.031
 S           1.17025496799770   -0.61796791637902    0.12861665262073
O           0.92036012130776    0.80712235661419    0.40254445451257
O           0.37743538263639   -1.45145750805263    1.01379246842842
O           0.92963533017957   -0.90588720799171   -1.28009016116794
O           2.66090262980565   -0.89454578638943    0.44873885292248
O          -1.41368612456530    1.60098295923311   -0.51957041308241
H          -1.60896446241901    0.92102026839554   -1.18782379227469
H          -0.47903766251868    1.43822641605547   -0.24889131513777
O          -0.19216444305920    0.54903525537352    2.75669653936243
H          -0.00791170532161   -0.39788245182309    2.80834631795025
H           0.32848158915965    0.83062313906328    1.96824915349910
O          -1.57182657383332   -0.75824531270419   -1.89639999099346
H          -1.70564721177601   -1.10280415005180   -2.78055077675524
H          -0.60029146225259   -0.86224661413918   -1.70208542387772
O          -2.42723419132342    0.63524532921636    1.56965371104791
H          -2.12181610011238    1.16412040743770    0.71828955562044
H          -1.59276353026584    0.65992438275036    2.18890311636503
O          -2.20134820493748   -1.65752186330697    0.58876454485544
H          -1.24513416126904   -1.77245791167593    0.80217905695741
H          -2.46797428047006   -0.36451730620343    1.22419615487418
H          -2.21244813961481   -1.48606530542733   -0.37118941543804
N           3.19081183889769    0.83045746773588   -1.42708147567570
H           2.44862323787097    0.35331084649407   -1.92917741357017
H           2.78698589799555    1.65807617474669   -1.00636175416117
H           3.12371796316588   -0.28811598610620   -0.18944273251417
H           3.91103930467332    1.11157031711081   -2.08030589434085
