    26
        -50.47153667  Gyration_radius:  2.411908709 Dipole_moment: 4.082
 S           1.09318035656718   -0.42278711512301   -0.89894969818754
O           1.08706962740964   -1.11007163033524   -2.27924958910184
O           0.94901395867577   -1.44475329616291    0.13511697110211
O           2.34311871282887    0.30491298781271   -0.76833456805315
O          -0.05328910404735    0.49857142593014   -0.85585999336833
O          -2.01231324834137    0.14267326129301    0.82478285223379
H          -2.82552911104412    0.41631463469291    0.39816878092148
H          -1.29514782652381    0.26365279106248    0.15244119318111
O           0.37802086321966   -0.07918834337716    2.31743172435233
H           0.65414839140388   -0.72222722043734    1.62516213322996
H          -0.56610211892935    0.05451744010715    2.15878633452452
O          -1.47467578505447   -2.50537963475920    0.14357019904477
H          -1.90693680320161   -1.74145355550552    0.55689676123519
H          -0.51844076629886   -2.31001709393960    0.22785971872539
O          -0.04664479707996    3.04672256035698   -0.18384521712570
H          -0.05842833950768    2.16051857837269   -0.61403207448240
H          -0.94350248137718    3.20979688034696    0.11354782460942
O          -1.30232984447417   -2.09167182781941   -2.43511657312802
H          -1.25705738633723   -2.94200588934854   -2.87718381423278
H          -1.48544286502162   -2.28868419516929   -1.47490280704444
H           0.15434376198316   -1.44900788886605   -2.40132486009833
N           1.83731981730768    1.82853527620272    1.25391072700201
H           1.18388685321189    2.53289612029284    0.84096025370077
H           2.19299838376142    1.24765220215076    0.42573884467766
H           2.59829090293271    2.25672304491140    1.76923809127529
H           1.27444885794513    1.14376048731145    1.84518676500374
