    26
        -50.47062755  Gyration_radius:  2.43164068617 Dipole_moment: 4.349
 S          -0.55655405665506    0.86903230440329   -0.24620207408777
O          -0.24407229389817   -0.44618917907493    0.35083566579394
O          -1.65505601284809    1.48790695177679    0.66603097540773
O           0.59374020879152    1.74855905936005   -0.15364262401427
O          -1.07797617971271    0.72390795792404   -1.58742682687985
O           1.20391432449796   -0.15331918765950   -2.66259874589469
H           0.97325214443265   -0.47939223404431   -3.53494717108795
H           0.38416844863582    0.23460327374317   -2.29664483062270
O          -2.46027109807275   -1.92647329217904    0.31238706087176
H          -2.54772120264200   -2.29011859956255    1.19506828122577
H          -1.59827074084069   -1.46297513332883    0.28893022620507
O           0.70573144621352    0.35284971749850    2.68847533048030
H           0.26936252818318   -0.03177365682651    1.89890475083356
H           0.22178443573009    1.15980114366574    2.87490636567157
O           2.07488295514843   -1.52297532153688   -0.52130753484614
H           1.96821872050025   -1.14966119590633   -1.41932206043641
H           1.17741615766547   -1.45035218252298   -0.14947031732337
O          -3.56299813111236    0.35400105521731   -0.60909512336068
H          -2.52141398843558    1.14526272485955    0.28895512678953
H          -2.97508859946719    0.45382670384978   -1.37322795214982
H          -3.42747166490137   -0.56673766409662   -0.30673878515620
N           2.66148048897813    0.59820813351165    0.87260672458325
H           1.93212038619183    1.19827333711966    0.37327999827854
H           2.24276485732603    0.45233776803925    1.81302242802664
H           2.64073674262438   -0.32933995802600    0.33402758278778
H           3.57732013367281    1.03073748378981    0.90319353891608
