    26
        -50.45177092  Gyration_radius:  2.50184680913 Dipole_moment: 4.149
 S           0.61081143162562   -0.81632164747308   -0.09180383536452
O          -0.41950662544685   -1.54639383107057   -0.84017933465515
O           1.85076174233947   -1.55932854638033    0.03191655479145
O           0.87625532680370    0.49761013994293   -0.77250903730342
O           0.06806236865037   -0.47889029343662    1.26826134738492
O          -1.91871755729333   -0.49722753631844   -2.58809525987096
H          -2.27537914669785   -1.24130856632716   -3.07561173380256
H          -1.20610223322832   -0.88244938109905   -1.98515304678992
O           3.86583308759768   -0.71528551097908    1.38891819285541
H           3.11615234616514   -1.17639162135000    0.91492917338446
H           4.61587302361905   -0.78260784941742    0.79603242045612
O          -2.32203355484688   -1.26252243227047    1.01072933081960
H          -1.41102456301581   -0.91860591975218    1.27491949146117
H          -2.07828422721696   -1.95950848516735    0.38595031879000
O          -1.04036766472798    2.12233690928755   -0.47720471670178
H          -0.28474804537866    1.45162651266052   -0.58357257468562
H          -1.04002504191204    2.62911121226423   -1.29206011146623
O          -3.01013320099436    0.54236459377926   -0.55827308031583
H          -2.72302420370262    0.11825802281030   -1.45252438897857
H          -2.79396352660795   -0.22137881057649    0.18270427793565
H          -2.27754979013049    1.26457472417126   -0.42504604674560
N           1.99375006485234    1.13994366938987    1.41211383143914
H           2.88367623299558    0.59712760368821    1.54537248358132
H           1.17913420932183    0.50415011728363    1.70738976875918
H           1.99164808402376    2.05373648337758    1.85031306725706
H           1.74890145320875    1.13738045296290    0.37248290775957
