    26
        -50.45991276  Gyration_radius:  2.62403364061 Dipole_moment: 5.317
 S          -0.81390410884859    0.36836952224457    0.51457815900803
O          -0.39151287310972   -1.02811288278164    0.52755088723473
O          -2.34869955680242    0.42205688913677    0.37229278423821
O          -0.45787864256844    1.06788117189566    1.74767920193222
O          -0.24515365334871    1.08156416776518   -0.64213354805328
O           0.21168540798158   -1.21264805637998   -2.05446736648682
H           0.14124284088270   -0.25598995892713   -2.15540100490664
H           0.10321121183630   -1.33102410796083   -1.09107870812577
O          -2.17275157098283   -2.26097399681195   -2.68743681730668
H          -2.04810009572803   -3.12952270142081   -3.07265410693646
H          -1.27370237149559   -1.87354196092971   -2.57959868050831
O           1.73131888661803   -0.38118109826768    2.16398768439515
H           0.93327044903120    0.16923570738029    2.27802948091636
H           1.40616002352935   -1.11552061029805    1.63078453360066
O           3.33236401239095    1.31607075495558    0.92350021880849
H           3.65053708280751    0.84876113153338    0.14880543987341
H           2.86228947383460    0.64063403444157    1.47751118927394
O          -2.82561364946615   -2.04354869621486   -0.08825128216905
H          -2.69047016707553   -0.51093084162425    0.18936702352186
H          -2.75805484649554   -2.14498412274610   -1.06472910741150
H          -1.92917488707233   -2.17761362470505    0.25171881462755
N           1.14110380602938    2.76631637207891    0.64021913789148
H           1.13767287572686    3.77299432691564    0.52173121017175
H           2.11189755613342    2.35268659512595    0.72981728820741
H           0.57089707364634    2.43731978550673    1.44854010790012
H           0.62136573272678    2.22170218007645   -0.13036256975067
