    26
        -50.45912537  Gyration_radius:  2.43781912305 Dipole_moment: 3.604
 S          -0.51916738243487    0.44332259353569   -0.29179997873117
O          -1.24449467684252    0.01301315120913   -1.57823532649209
O           0.51809441741966   -0.58106301857911   -0.03703608444985
O           0.08900507046851    1.74737557967457   -0.47086126961385
O          -1.52911612536801    0.41974720713208    0.75782501256841
O          -0.52051875524830    0.07883175567107    3.19254035095260
H          -1.16324749006437    0.34509414799449    2.50564731870318
H           0.24647531455664    0.65939391169020    3.00619130700100
O           1.18351800601930    1.74196206305530    1.96899306975562
H           0.79700098403048    1.77081583701440    1.07169214282501
H           1.39587144323596    2.64890895024885    2.19803776677999
O           2.37265076026297    0.86862262202745   -1.56247065615378
H           1.65848951357985    1.41494949189428   -1.18662115278226
H           2.39761908308269    0.09948400662852   -0.98399273304922
O          -2.31978094306683   -2.06613083525791    0.69956725335502
H          -2.35208352733917   -2.33263945920660   -0.22104515180820
H          -2.22963566743170   -1.08448173222938    0.69008355268664
O          -0.04019265902032   -2.00102932588315    1.89012410903985
H           0.31890500508950   -1.44059778992432    1.04887757876632
H          -0.19933390638605   -1.21876488286247    2.59189407331922
H          -0.96097616222031   -2.25947026892528    1.56280774453593
N           0.46520517666783    0.13754769582789   -3.45461975283922
H           0.62024792813527   -0.72362188295318   -3.96101048437427
H           1.31731490455245    0.38541437210434   -2.93499382814937
H           0.26044360475130    0.87509090839360   -4.11514380337604
H          -0.56229389651657    0.05822489166130   -2.38645107849505
