    26
        -50.45991525  Gyration_radius:  2.61659182674 Dipole_moment: 5.262
 S          -0.72750255307775    0.15982375201838    0.75014770055828
O          -0.36764948845115   -0.42674906624966    2.03921904660050
O          -0.85986537539466   -0.90551571169571   -0.25948981192604
O          -2.11450668410068    0.81551036843276    0.90652990903808
O           0.22654491563528    1.17465309046278    0.31595636509446
O           2.24761379537217   -0.12585212335935    1.66983963518758
H           2.13039005020861    0.58869839789045    1.03366056847554
H           1.35664978441434   -0.21408951595210    2.05903210418657
O           0.17917402003569    0.60102981350118   -2.27948317850834
H           0.38017574983684    0.92834624097431   -1.38162047056245
H          -0.32046434949991   -0.20432066311509   -2.09824954735104
O           2.57420078979523   -2.53057076374419    0.62448640374331
H           2.60637657585145   -1.64323994653121    1.06701997606413
H           2.81177897633024   -2.37834439731948   -0.29219672713149
O          -1.64781056881357    2.48974790917380   -2.81114961607333
H          -1.28907466371648    3.12144866552143   -3.43613323318816
H          -0.98569735764997    1.76408775026248   -2.73827379716796
O          -1.63695965316737    3.07418307809315   -0.18606634133584
H          -2.07970829371168    1.74235709515021    0.50692521743991
H          -0.71108027343255    2.83422182453015   -0.03648596666494
H          -1.79122495238277    2.95036066213557   -1.14989282412377
N           0.00108211012627   -2.82369956267579    1.14814185551250
H          -0.45031647356203   -3.71875462280245    1.29852541041528
H          -0.12841032983037   -2.15191300817779    1.93389993000083
H           1.03788771919420   -2.89954816779959    0.94447398491958
H          -0.44160346995249   -2.22187109866641    0.37118343679585
