    26
        -50.46626582  Gyration_radius:  2.38229283293 Dipole_moment: 3.608
 S          -0.09297637518009    0.09785606822155   -1.52312246603439
O          -0.24625125338344    1.28066989022014   -0.48373635462303
O          -1.42482323056134   -0.35824589232073   -1.85379941096353
O           0.68140937670932    0.67379966754451   -2.60988635373012
O           0.69165809610535   -0.93072916666278   -0.82568241610400
O          -1.50447844074887   -2.48500319168672   -0.25616271488674
H          -0.55320566228829   -2.63539290023148   -0.27274695367790
H          -1.63371129048923   -1.80253210389612   -0.94609395790190
O          -1.92365449950792   -1.03205942264697    1.90270433386271
H          -1.78673459923743   -1.65800235158392    1.14224368820921
H          -2.47771606392424   -1.49084277504200    2.53543634407515
O           0.83890702807510   -0.37472556346644    1.78366343641383
H          -0.07065740568800   -0.44337861054594    2.10465492812426
H           0.79038632692282   -0.66110705165358    0.84991831835605
O           1.91621777915886    1.95579426265392    1.09729773585769
H           1.59438436065765    1.13748804556350    1.55156673289261
H           1.11182305123886    2.35600987415387    0.74731904777223
O          -2.69160501627470    0.93361488022274    0.19453990295079
H          -1.19758597403024    1.28289575598667   -0.16366505201207
H          -2.76623494978237    0.41929303226723   -0.62245980763967
H          -2.55189361497724    0.28890691177657    0.91735343792766
N           2.71011764320077    0.70540836524914   -1.05993326391120
H           3.67263583114833    0.76350209320232   -1.37616505910024
H           1.98745972344142    0.91056655184217   -1.83047160496265
H           2.41931344892890   -0.25328606808079   -0.80668725523752
H           2.50721572053098    1.31949969887642   -0.19608524576885
