    26
        -50.45614421  Gyration_radius:  2.5680282274 Dipole_moment: 6.163
 S          -0.02769317220989    1.03378307312063    0.62403487668800
O          -0.74626835748363   -0.12979763584660   -0.16797883112771
O           0.64469267919789    0.34299060603369    1.72408444135001
O           0.85262583153562    1.70772502560322   -0.29439209239142
O          -1.10778430814844    1.87949195175933    1.13886086563003
O           1.03826572382000   -0.43476322643435   -3.61473724298275
H           1.66147914044210   -0.39003298292321   -2.84463594977151
H           1.51666149752907   -0.06974060806503   -4.36053062073847
O           2.56484149860120   -0.02418689997512   -1.49970533891527
H           2.54959487065976   -0.73650401749832   -0.83422237635831
H           2.07220036609615    0.70662873848439   -1.08631028932114
O           2.30568119474631   -1.52797369921651    0.76972403569120
H           3.09799524920555   -1.44333559069590    1.30355306167963
H           1.66748897484161   -0.88049500612191    1.12964061809397
O          -2.62823213753847   -1.59253968536203    1.13336500346594
H          -3.42345050365211   -1.55961560859453    0.59825849595395
H          -1.90337799531593   -1.27054609844206    0.56365683220074
O          -0.78041341044782    1.04702653135972   -2.39338111547515
H          -0.20114903326958    0.47195371859729   -2.95787987750646
H          -0.87033285862983    0.24564680599508   -1.11132552582500
H          -0.18853747294151    1.69982666256931   -1.99291596235820
N          -1.65476534509890    0.16925156402462    2.88860247088342
H          -0.63791824168923   -0.05373698937433    2.79136448795562
H          -1.94390077275355    0.35165705820724    3.84314495344758
H          -1.65256379041311    1.04292501306191    2.22806836548911
H          -2.20513962708504   -0.58563868027687    2.42165671424340
