    26
        -50.46951804  Gyration_radius:  2.4222797344 Dipole_moment: 5.943
 S           1.21499217082442    0.50619969364664   -0.47942580087897
O           2.50396218836115    1.28675225488497   -0.15593143559678
O           1.28191430531880   -0.79039864917485    0.20971715968360
O           0.06897768578344    1.26901601554353    0.01024575184180
O           1.15585139284566    0.31632731525451   -1.92038355567147
O          -2.47144835393917    1.22977637836669   -1.05557864277293
H          -2.68751030475267    0.71412055743340   -0.25219932908729
H          -1.64272787617821    1.67154371785386   -0.80749771329455
O          -0.60986733518692   -2.43170434845073   -0.46389273778279
H           0.14541947138614   -1.84665591591200   -0.18905000742920
H          -0.26925834164731   -3.32725074815484   -0.44947516324931
O          -1.91148152380972   -0.34223742640153    1.03932788210817
H          -1.66980139557210   -1.24739458019405    0.81694901852845
H          -1.10646283963948    0.18547831181430    0.90408522953684
O           1.66412305911397   -0.35436302403958    2.78994557764327
H           2.50610138813409   -0.74701447497493    3.02572980398666
H           1.49633401351778   -0.60343849611041    1.85519896651914
O           1.58378413019992    2.21400846519081    2.04224617339021
H           0.72396332343833    2.21397358473442    1.59812336398807
H           1.60640454061098    1.38267172395380    2.56353568189542
H           2.30071598771392    1.74172001588198    0.71740757414650
N          -1.19763168112180   -0.62488405827762   -2.38929717340318
H          -0.20734417589314   -0.21527519780175   -2.33063686567319
H          -1.84242269459165    0.11420962460791   -1.95133059774683
H          -1.45754973549329   -0.84638519050458   -3.34407328339695
H          -1.17903739935566   -1.46879555895080   -1.78373988735497
