    26
        -50.46995330  Gyration_radius:  2.48929035895 Dipole_moment: 2.984
 S          -0.27567191158556   -0.76354890397485    0.03965875222302
O          -0.44617124772714   -1.96806335998004   -0.92516125216125
O          -1.36456955587253   -0.77400222275924    1.00919233605015
O           1.01513589744033   -0.91059519019582    0.68251756395501
O          -0.33045446909401    0.44997814504230   -0.78759395284064
O           2.35351963971573   -0.68425595051814   -1.68038817611358
H           1.90006058967818   -1.04021493637853   -2.44534773140216
H           1.80686295634839   -0.91567812952409   -0.91309895419597
O          -3.74359079881625   -0.71731598521298   -0.16671442908297
H          -2.91409019515838   -0.68084984448773    0.35619601778441
H          -4.23327320127461   -1.47156745363125    0.16562848781450
O          -0.16832303466901    0.88496210089244    2.70017456487661
H          -0.73450509263796    0.29726764414683    2.15320998795230
H           0.44705842595915    0.29245711574366    3.13906946595850
O           3.26784395373486    0.63798195858947    0.59775006918702
H           2.69762402739812   -0.09203149067390    0.89284309543253
H           3.44659463197778    0.41966366449408   -0.32686929793430
O          -2.19744338634198   -0.76868734504933   -2.35171490195009
H          -1.67617525536445    0.02007193225464   -2.14283752449380
H          -1.15781315225857   -1.67963059166671   -1.57718195397140
H          -2.95198571471429   -0.74622067455442   -1.72431433786662
N           1.06193009333108    2.08586105062284    0.66010247641791
H           2.04548325128879    1.68479449240442    0.62862284679401
H           0.62017630351739    1.80311472980269    1.57376311758260
H           1.03413704314613    3.08797064314977    0.50803600324055
H           0.49764022199142    1.54853857151078   -0.06554226321532
