    26
        -50.47011016  Gyration_radius:  2.48843204892 Dipole_moment: 3.830
 S          -0.53337146539040    0.59454047061282   -0.34277062174112
O          -0.56679478355315   -0.80533731852577    0.12097292159717
O          -1.80855479429891    0.81620175065818   -1.19240999844749
O          -0.56207923913198    1.50809555989143    0.79522832513518
O           0.61288162009697    0.83259241020379   -1.19407075158009
O           1.99416949742984    1.44171267411997    1.41628139652489
H           1.02218186597568    1.55351063757159    1.30370297112863
H           2.38649563957770    1.99271996260369    0.73495072381150
O           0.18038387935307   -1.49058249246334   -2.55068289286020
H           0.16053545074659   -0.56365692661337   -2.26261659189321
H          -0.40464983450835   -1.95030771525803   -1.94386795208496
O           2.72656856038926   -0.85537118227176   -1.84753502081557
H           2.04944869547497   -1.37719910337759   -2.31693739120855
H           2.35392137210529    0.03854461392646   -1.85805852523888
O          -2.73764857446425    1.28544876501722    2.30069340608353
H          -1.87959220785998    1.40628441355083    1.84079151095744
H          -3.14464791806747    2.15272935292460    2.33606714527201
O          -3.26733041014373   -0.54268228734828    0.41739104412858
H          -2.54191289851190    0.35142106578738   -0.68603003926829
H          -2.46132792199756   -1.06376635747745    0.53982949335307
H          -3.30297062175841    0.05622546475925    1.19402836305501
N           1.96617230922581   -1.10631342007998    0.66011522970241
H           2.40917073482128   -1.12921932180512   -0.30986281345051
H           2.29361613422604   -1.85271861388916    1.26359527726790
H           2.13938688230289   -0.15060564816942    1.07416944326116
H           0.91594802790947   -1.14226675413107    0.50702531734742
