    26
        -50.46815421  Gyration_radius:  2.47610331239 Dipole_moment: 5.896
 S           0.74161866803610    0.72483332009848   -0.45903065342012
O           0.94558852843045   -0.65446333366192   -0.88137743461556
O          -0.63028294074885    1.16494559297900   -0.67655315469715
O           1.11257135120056    0.89101891770295    0.95277754534153
O           1.68886429914161    1.63734087457575   -1.26639089915498
O          -2.12699901109367   -0.45967476394820    0.84498384898343
H          -1.91128667998090   -0.05173686318129    1.69772230314201
H          -1.73243369962712    0.13969571947286    0.18274942000696
O          -0.77666782799059    0.94704551462135    2.84114907108294
H          -0.11818538128487    1.10802530651140    2.13224195607750
H          -1.16030310011810    1.80048523348770    3.04738577913560
O          -1.18781519301929    1.01875134989956   -3.26061849301057
H          -1.53207446126149    1.87245375176969   -3.52787565434164
H          -1.08737398359383    1.05723107277287   -2.28512737733402
O          -0.41207356534263   -2.42535144466654    0.51877157799511
H          -1.23981032272504   -1.88807529119431    0.60462101980188
H           0.09276511060394   -1.95283019572220   -0.18008611874139
O           1.37140241693496    0.24446485544473   -3.38394862038402
H           1.68163742771507    1.21686389429514   -2.17833124275743
H           1.29864308447437   -0.49891515298021   -2.76682993208386
H           0.44596403447349    0.48529440289263   -3.60176234956851
N           0.92909497213444   -1.29330191994995    2.36525701688712
H           1.19312441737526   -0.44125783221638    1.78558110087572
H           1.74582188267180   -1.76150817574534    2.74156537968531
H           0.31382638622852   -0.95635081952553    3.10587993369036
H           0.35438357735901   -1.92498403373400    1.64724597740236
