    26
        -50.46113752  Gyration_radius:  2.40415836719 Dipole_moment: 5.464
 S           0.61193304658516   -0.56480384545950    0.10834785032396
O           0.39107673184038   -0.77540675039234   -1.31037469513494
O           1.96433032802911   -0.18650524232935    0.45381279181154
O          -0.36012646514263    0.42642586025668    0.62218364312217
O           0.27451892445441   -1.90860257992943    0.82325676763913
O           1.79192491262987    2.34168703825879   -0.30907325308118
H           2.01127056852512    1.43441337531211   -0.01329374374525
H           1.17031065452430    2.68402751223346    0.33682239411655
O          -2.45718089652497   -1.28400750028269    0.63562715771239
H          -1.78168092499652   -0.60321005083909    0.80745277751764
H          -2.02751095354388   -2.11976248827293    0.83500629024596
O           0.60151021957923    1.60396421512686   -2.56165005297799
H           0.73148893887469    0.65041689905377   -2.39956629634499
H           1.18338356987949    2.05068673757668   -1.90516998299927
O          -2.20887501903119   -0.75414649976348   -1.96818269102215
H          -2.57227849174340   -1.06910111579641   -1.11113248630607
H          -1.26347575167064   -1.00595554797262   -1.94334960162465
O          -1.55517709687961    1.56386548437212   -1.30841071224698
H          -1.99228361855876    0.67270139557313   -1.68658695999908
H          -1.12569185292017    1.22599518981983   -0.44297999810748
H          -0.71204315673836    1.71818492061032   -1.94117106650029
N           1.49088605358688   -1.22154706586059    2.99919377057605
H           2.11218216358147   -1.81823989275143    3.52939417397341
H           0.99534957722880   -0.61805639592188    3.64203947080917
H           2.04350624052809   -0.64496228248009    2.36809545265041
H           0.68265228789287   -1.79806138024820    1.73970901959021
