    26
        -50.46584944  Gyration_radius:  2.55081359092 Dipole_moment: 7.048
 S          -0.45144841008354    0.79059816472334    0.38468010047134
O           0.29987854683652    0.14725127649687   -0.83781081875370
O           0.52800707042210    1.72029543796818    0.94197177367951
O          -1.64698414042926    1.42936499987002   -0.10672726551877
O          -0.73145620103172   -0.30057052133574    1.31746909418879
O          -2.95093450302773   -1.08519597616534    0.10141922688214
H          -3.39509627078248   -0.23925646935374   -0.00638803572961
H          -2.18137008399987   -0.89013501878831    0.67202519733556
O           2.94706515345313   -0.40729950746298   -0.97993393115051
H           1.97482689554267   -0.33313549494501   -1.04275602023356
H           3.30257472811708    0.07241979447706   -1.72977801975190
O           1.10379184388655   -1.58143348713312    2.63748118576059
H           0.35543990668737   -1.20000537121805    2.11168756060349
H           0.76772319316360   -1.68430795704401    3.52914597680037
O          -2.45755170403993    1.36651812895513   -2.62812274756319
H          -2.08879449131485    2.12256994326612   -3.08596463909609
H          -2.23209342683296    1.48535064534290   -1.68024981632226
O          -1.47735943173854   -1.08756696338915   -2.10442373471060
H          -0.39932236307258   -0.40334407239812   -1.37311346502754
H          -2.09657298158955   -1.30898116959918   -1.36763563711782
H          -1.89724683657971   -0.33168640201580   -2.56073734574809
N           2.57983546781263    0.34626254379531    1.57811199008713
H           2.95330736055469    0.01750594933266    0.66304656610761
H           1.73392081785762    0.99540310446346    1.34536900974596
H           2.17403465025711   -0.47130958929030    2.10006602668739
H           3.28582519994618    0.83068801145914    2.12116774837293
