    26
        -50.46234607  Gyration_radius:  2.37960752437 Dipole_moment: 7.192
 S           0.76043399710793   -0.58610070387950   -0.33377313369758
O          -0.18211648827354    0.53620706481273    0.24279137887936
O           0.99431359092471   -1.50575222084218    0.77434594747609
O           0.11949623127649   -1.20405813510859   -1.46300329399911
O           1.96734195060322    0.16847775057647   -0.68752119930613
O          -2.17631641053008   -0.13532521422177   -2.37416329851308
H          -1.84227764926735    0.74532020754185   -2.59027549888204
H          -1.36996685219571   -0.66701510862003   -2.24106084627422
O           1.04578084089274    0.03748271405819    2.85256441946483
H           1.08340573055703   -0.66666334599512    2.15286533847118
H           0.11285246411565    0.14329192643782    3.05451076508779
O          -1.33041702890746   -2.78161968812528    0.38044721417898
H          -1.24573701221479   -3.03172429000809   -0.54382823463059
H          -0.44371896020390   -2.46228592060258    0.63265714606338
O          -0.02522537885587    1.74824832846877   -2.23346635813034
H           0.69707050101559    1.23693274350789   -2.60568949978130
H          -0.09700787443222    1.45082041175180   -1.31708156103830
O          -2.48430915810838   -0.38861576919266    0.24487736878394
H          -2.27099603760724   -1.34288815706906    0.37841910851388
H          -1.18403848520033    0.18012541075133    0.30187156081868
H          -2.64141084331903   -0.28338242627490   -0.72667036281634
N           2.11949938785621    1.79941619092075    1.23593781752213
H           1.68990554152453    1.18888027612522    2.00456182669388
H           1.51052676703750    2.58498685379934    1.02483762436822
H           3.05335457813381    2.11274842984899    1.48191122560551
H           2.13955661806937    1.12249267133973    0.35393454514002
