    26
        -50.46982631  Gyration_radius:  2.52274383623 Dipole_moment: 5.546
 S           0.23131779236574    0.63240062282453    0.29300147405714
O          -1.07193261217461    0.39542897648124   -0.33736944707250
O           1.22815513378793   -0.30021761221447   -0.27040894875506
O           0.67763149616519    2.06211301028856   -0.02061616322264
O           0.15581569812642    0.49492250214673    1.73178872221820
O           1.56467938491642   -1.09368125150090    3.27776572820329
H           2.42300969887751   -0.69368013668204    3.42576111087179
H           1.02054718635609   -0.40341452810431    2.82952427358725
O          -2.16318106725911    2.33681958795328   -1.81384337670759
H          -1.87228547789959    1.58643866140189   -1.25627459484015
H          -2.48261990987417    3.00971954251920   -1.21107470182524
O          -1.71378618356102   -1.61215043331473    1.22854003030553
H          -1.77933372534977   -1.16391077834938    2.07646256930790
H          -1.60120201924447   -0.88305747510865    0.57575627688926
O           0.28202334503132   -0.30001683555651   -2.75934750026953
H           0.74912898214342   -0.38884468077727   -1.90665788309722
H          -0.65242488791569   -0.36847927046243   -2.54170388935186
O           0.43722731628925    2.36347695471043   -2.51846541609127
H           0.65535874116656    2.22070637880158   -1.03987287686768
H           0.51359639189917    1.43907303565501   -2.84355918026292
H          -0.52356661995853    2.54959462749512   -2.51271963323396
N           0.79732788081740   -2.42379716790028    1.11637339452893
H           1.09172970565049   -1.63447745757467    0.45341381407372
H           1.07818453983863   -3.34155520520307    0.78934893694477
H           1.20939151637554   -2.17039876025103    2.04600573944860
H          -0.25479229657538   -2.31301231728699    1.18817155115976
