    26
        -50.47217986  Gyration_radius:  2.38259920069 Dipole_moment: 4.487
 S           1.05375440004332    0.28473747578113   -0.95056248357020
O           0.86813285947985   -0.10345069448998    0.45517309700354
O          -0.24959263975901    0.18536254459469   -1.64558938537401
O           1.49212579510586    1.75835849239509   -0.98570847780428
O           2.06393755296616   -0.51223885084346   -1.59502221976743
O          -1.50829159389743   -1.01130623763730    1.29856057281395
H          -2.05690400715358   -0.25813170152912    1.03616859769511
H          -0.59354189867545   -0.66809947949753    1.23671077739104
O          -2.18667520003246    1.20386653130048   -0.24454884528521
H          -1.46970065985907    0.83486990862511   -0.82288459461246
H          -2.82571409842925    1.60823752986282   -0.83335215251860
O           1.66589837218061   -2.77806332580579   -0.38066135969122
H           1.97051714396742   -2.00204094403032   -0.91305812218269
H           1.80838184333650   -2.51537286968375    0.53262366588218
O           1.16555771193921    1.69201466881190    2.39008652233847
H           2.08890764257338    1.94455078418315    2.43634070905610
H           1.11392626188538    0.95294544372782    1.74797908569803
O          -0.21698501727831    2.96610784099933    0.48214198219551
H           0.81741749669696    2.30540032540993   -0.45998156406214
H          -1.03368345857545    2.44406510412772    0.37956714689047
H           0.17403488443382    2.69350385059966    1.33899589908446
N          -0.85443270385591   -2.23968132399696   -0.91907204769207
H          -0.67024589333568   -1.32137348297710   -1.41508253064898
H          -1.43331077484431   -2.87157419615907   -1.46093741614846
H           0.10824773756789   -2.64329873388380   -0.71485366235108
H          -1.29176174649069   -1.94938865990051    0.00696682566798
