    26
        -50.46434393  Gyration_radius:  2.49860801426 Dipole_moment: 7.189
 S           0.01024419573373   -0.58747258969315    0.81697270892585
O           0.42951782082813   -1.27638925273408   -0.50797656143156
O          -1.43365173947888   -0.50923747446169    0.88034360084518
O           0.58815021633065   -1.44190312738265    1.85985921412818
O           0.62832193645125    0.73899798392245    0.82766531838060
O          -3.14005006890623   -0.61525615854797   -1.24320100005670
H          -3.56571803596279    0.22819471348725   -1.05820001384936
H          -2.64541678725749   -0.82685260507334   -0.43303069664297
O           3.21240705729597    0.68642362590943    0.63416138668922
H           2.22540611279507    0.80456233823982    0.64862013134329
H           3.55007034550275    1.23940108885760    1.34074940181619
O          -2.82061634201735    1.75027881393022    0.53626265441103
H          -2.32380696012864    0.93538154758681    0.76019163838895
H          -2.95276851291363    2.21912487567555    1.36086614238003
O          -0.61031498367136    2.21442489892232   -1.04795657167735
H          -0.05522506201279    1.82154653856001   -0.34925515214450
H          -1.49114538466092    2.29321893591656   -0.64491561416633
O          -0.75875532209672   -0.07820410966577   -2.33674291811942
H          -1.69459095435803   -0.32824202590856   -2.15987824720271
H          -0.67679611252248    0.86489074300163   -2.03861492610165
H          -0.05117038637402   -0.79486810725802   -1.31586638771102
N           2.75892618508787   -1.89913241621993    0.69059144305783
H           3.16436616437849   -0.92197095355758    0.66284425351743
H           3.40624712917250   -2.59086839656441    1.05369712963811
H           1.82595151339442   -1.78586213350847    1.30349056557148
H           2.42041797539344   -2.14018673342452   -0.24067748998759
