    26
        -50.45932474  Gyration_radius:  2.43881208129 Dipole_moment: 7.815
 S           0.88562257234303   -0.20968239775417   -0.01526807166860
O           1.06480516344012   -0.95900099127253   -1.32979373328545
O          -0.52569425406467   -0.27904844947722    0.38465390599096
O           1.73245174172846   -0.86009946680021    0.98040742694330
O           1.27985716729315    1.19536637350428   -0.18634162006886
O          -2.49273595893773   -1.28617028849514   -1.25991387982343
H          -2.06381342633130   -0.74784576706674   -0.57638345072904
H          -2.19754716700489   -2.18699999202039   -1.06610758173614
O          -0.82090656729608    0.85546297615540    2.73757625283464
H          -1.24566753468163    0.19806385662208    3.29204108957106
H          -0.82999985528214    0.48066869271702    1.82356738045089
O          -0.58118045397722   -2.99701523284739   -0.03072556504321
H           0.23482221181354   -3.18584783206889   -0.49853020274308
H          -0.48622133353571   -2.08971823572730    0.29238923727394
O          -0.35340879239516    2.21066364310749   -2.00989376438813
H           0.18908841174535    2.79043260094211   -2.54764280804961
H           0.22457749097744    1.89144398862078   -1.28389743074763
O          -0.70929176961577   -0.27141216338328   -2.92848327769341
H          -1.50231921364586   -0.66472981672031   -2.48323424113339
H          -0.74028165980068    0.69208974093192   -2.73473419024632
H           0.33796398324186   -0.68560524623521   -2.06529357135994
N           1.75018596932017    1.25627141784353    2.35423912924660
H           2.45610537355761    1.66286401222913    2.95828393536309
H           1.93998372866125    0.24790206255078    2.01896809123031
H           0.77899403158954    1.23953274014638    2.76321992491563
H           1.67461018083902    1.70241378450334    1.41089701488645
