    26
        -50.46434394  Gyration_radius:  2.49858562542 Dipole_moment: 7.188
 S           0.56730646449836    0.66268290156966    0.50183731427853
O           0.28651733003045    1.01130046729915   -0.98324836684726
O          -0.58144705656606    1.02472810817584    1.30450389166710
O           0.84338672303707   -0.77318518022655    0.56295734013772
O           1.76754657731578    1.44015381120653    0.82831933549679
O          -3.13334342597559    1.34381876431519    0.39993615871230
H          -2.24270583334508    1.50674501272606    0.75488806673966
H          -3.52193262742811    0.69738686272427    0.99810681048588
O           2.83914602697997   -1.51469602077918   -0.91512071661357
H           3.41174930616508   -2.04216274281864   -0.35563373514437
H           2.02660800107794   -1.33224068310383   -0.37212891460687
O          -2.29153410932113   -0.74785970680313    2.34434854504121
H          -2.01947800559800   -1.04093190870650    3.21455098390301
H          -1.62175663634978   -0.09411797122585    2.05275528332774
O          -1.46605906534370   -2.05454371192663    0.05924334577874
H          -0.55711402502350   -1.75313802356045    0.24264567079967
H          -1.96863265129053   -1.81400831644252    0.85553501781132
O          -1.90775435509067   -0.01628766900045   -1.55001263547693
H          -0.63866232865868    0.58951742453371   -1.26913892315809
H          -1.83879194871651   -0.89221116972111   -1.08849061250719
H          -2.52399172761775    0.52092568329253   -1.00116068140647
N           2.95325506611142    1.07203701076107   -1.35047755274804
H           3.09629179748652    0.02423735812680   -1.30935877910436
H           2.51985624260931    1.32384173959387   -0.34666693400430
H           3.80140343054722    1.58346240832782   -1.57061279461586
H           2.20013685046336    1.27454555167758   -2.00757714795229
