    26
        -50.45932476  Gyration_radius:  2.43884349178 Dipole_moment: 7.810
 S           0.59306260872727   -0.68422655531668   -0.10083447738580
O           0.08561832530028   -1.00964221908554   -1.44073580116203
O           1.94339156674637    0.01196631149737   -0.21571210534750
O          -0.35052433611256    0.21400221784521    0.57699566795819
O           0.79104291463054   -1.90190760179767    0.67971973407190
O           0.23826044147773    2.84567377180141    1.13794944455673
H          -0.27817849469638    2.05312564499288    0.92300635640703
H           0.79585140547771    2.56655179568036    1.87778012750644
O          -0.21611530180561    1.29970590942362   -2.70565212120606
H          -0.18304662351011    0.43144793346644   -2.24952141437631
H           0.06408980330424    1.13775371954203   -3.60832440139740
O          -2.63489714210426   -1.03378557736834    0.94390664997031
H          -2.81867225432654   -0.96996182111085    1.88313609985722
H          -1.85022993335216   -0.45499031243668    0.78491150910266
O           1.46384295658865    0.72171611020342    2.58012137197513
H           0.78283981189299    0.38142124553423    1.98256297968286
H           2.29058473048295    0.36151814422133    2.25281187021921
O           1.61742794055545    2.32698500585573   -1.05839963657249
H           1.86483934790103    1.00893237814597   -0.59507986916798
H           0.91924525673012    2.16026296302698   -1.73045724725169
H           1.15560094532903    2.72918379896324   -0.27944318006995
N          -1.29237229022681   -2.89755126635037   -0.33757889945214
H          -1.53987409887213   -3.85350415997628   -0.56866558440131
H          -1.00281619472799   -2.31268213297245   -1.15534120482448
H          -2.04271782108605   -2.36078768280075    0.17200273036569
H          -0.39625357432737   -2.77120762098417    0.25084139093961
