    26
        -50.46146064  Gyration_radius:  2.44302546568 Dipole_moment: 9.678
 S          -0.24866359577865    0.69484105542750    0.42621239391606
O          -0.51449145757359    1.70692698945065   -0.56406962008743
O           0.17212939636238   -0.64136218882557   -0.26672426446135
O           0.85685274864880    1.01168513190575    1.31661175995608
O          -1.46168672948867    0.33379665743604    1.19027113426902
O          -2.70910657592145    0.52916508141348   -1.47611569171966
H          -2.01695805164376    1.15225048170317   -1.18577348393364
H          -3.12611947378524    0.23489467759418   -0.66393279937133
O           1.43420956989055   -0.71473999462456    3.16255063998138
H           1.44994741859314   -0.23561920642903    3.99317405329519
H           1.33645645140700   -0.02141298154910    2.45737335409499
O           2.56645837706243    0.82318870707639   -0.80935254903976
H           2.03947742297362    1.05653061144972   -0.02846681928815
H           2.59800767381628   -0.13603885158762   -0.82310105343323
O           0.89488999467458    1.54361300244746   -2.88787149083177
H           0.32507631397950    1.96069973112409   -2.22405698950075
H           1.70828518173680    1.34723787001744   -2.39126249171793
O          -0.55082622515284   -0.64282800944693   -2.64851397014843
H          -0.11994673785152   -0.67992206547152   -1.28189326826453
H          -1.45955517190772   -0.30859094241679   -2.52672026446876
H          -0.00971669849645    0.13449205184064   -2.95602717128775
N          -0.64660556282749   -1.87631977981809    2.05800399087116
H          -0.29611746524205   -2.29315450872021    1.19640531165462
H          -1.12200735152228   -0.90962172938638    1.73457463081726
H          -1.27988506806973   -2.49714737906793    2.55086835685977
H           0.17989561611607   -1.57256439154363    2.64783629183767
