    26
        -50.46811959  Gyration_radius:  2.53570584397 Dipole_moment: 5.659
 S           0.39667062078012   -0.60970110403366   -0.53012470653757
O           0.54947117197307   -0.65009772339910   -2.05206185778037
O           1.66782934766086   -0.97436429500965    0.06258821084202
O           0.02884669381655    0.77186903803785   -0.15274943684292
O          -0.66510066150740   -1.53127784286858   -0.12431484317420
O          -3.04760895036694   -0.84727821250678   -1.01156810457628
H          -3.50212238858815   -1.66974678449643   -1.20205487146236
H          -2.19534390227686   -1.10029801990737   -0.59239360913210
O           3.14105678705488    0.58824638753684    1.56167731879637
H           3.93806243080275    0.11254358915052    1.79991503975368
H           2.68980326345739    0.03827165699262    0.87616210982328
O           0.17227711287491   -1.89871538097141    2.31467237984531
H          -0.26995913785701   -1.86576908765642    1.43160456242082
H           1.02930434367456   -2.29085563902759    2.12593530853008
O          -0.78704249102732    2.58702037567672   -1.93578680512864
H          -0.51406849578137    2.00105028682003   -1.20105821304240
H           0.02295323715390    2.89979013838697   -2.34215687570198
O          -1.61525605505494    0.24999807428256   -2.98789072703293
H          -0.33001675009903   -0.32407531928027   -2.48518560975197
H          -2.28626651584146   -0.08788002074649   -2.35398586725594
H          -1.49773157767056    1.19717742774172   -2.76596451202322
N           0.60581859202275    0.70427364152796    2.35311627866781
H           1.64206115328093    0.82168567018773    2.32577557099495
H           0.38996474232818   -0.31958923919055    2.53422513226785
H           0.15255428491956    1.32987403653823    3.00985737745831
H           0.28384314423708    0.86784833622577    1.34176676003764
