    26
        -50.45551708  Gyration_radius:  2.46505756385 Dipole_moment: 3.958
 S           0.60228411230603   -0.82155952177086    0.37743894414371
O           0.85669537878471   -0.07343640196186   -0.86716465216644
O           0.05094617995230    0.22273196393470    1.39848226051060
O          -0.53027659851289   -1.73302294069523    0.15874594499361
O           1.76967718734316   -1.45693475703589    0.91456886926260
O          -0.94629913436561   -1.48283748991932   -2.38292448510677
H          -0.15788776573711   -0.96905904218893   -2.59669393152308
H          -0.77544388533375   -1.77504334004133   -1.44936849184718
O           3.44701065147720    0.34849366550024   -0.06607353172223
H           2.79743729992530    0.50041915326694   -0.76293001693952
H           3.13246183546235   -0.48128022925330    0.33802463290877
O          -2.96900284878897   -1.01872824812905    0.57181148577172
H          -2.00787485188476   -1.28226704529019    0.57452955915167
H          -3.46599514549806   -1.83145740922156    0.68150422254346
O          -0.99628367593790    1.68152469284137   -0.70415669674727
H          -1.11403880984658    1.66953117444582    0.25306591341359
H          -0.20541192875103    1.08509306101477   -0.84851120479876
O          -2.72122080886862    0.14084892057588   -1.66387573881648
H          -2.99935144460423   -0.32086309755824   -0.78566997187754
H          -2.07786063191736    0.90716751085198   -1.32923876390935
H          -2.05758198446481   -0.54627688220726   -2.10915131142640
N           2.13080424899816    1.52015580972048    2.09861077802568
H           2.51109886077443    1.16652091611744    2.96641159824049
H           2.77384090510625    1.26005531497299    1.33921030434652
H           0.87844882113539    0.76170442408588    1.73835865518006
H           2.07382402323952    2.52851979795026    2.15499563837224
