    26
        -50.45448754  Gyration_radius:  2.49124979234 Dipole_moment: 2.161
 S          -0.18882544796857    0.46130892756517    0.78484448422919
O          -1.04654830556025   -0.68304643768275    0.46338557619618
O          -0.32655556965952    0.78829545983298    2.27797989672615
O           1.21329478193245    0.15536756968449    0.48967764434710
O          -0.62965862388763    1.65023213635329    0.06077098984825
O          -2.30809605308177    0.26373465029677   -1.55031883360283
H          -1.90101297575178   -0.25387856984359   -0.79768662321279
H          -2.41351036892554    1.14100202784850   -1.16381433880628
O           1.41311380200487   -0.76651313763600   -1.89321690922313
H           2.31367350286448   -0.57644536264109   -2.16416809237354
H           1.33349273769503   -0.43490966876780   -0.95055256639192
O           0.86107182327744   -2.44975307242651    1.16561691876705
H          -0.00264191043965   -2.18902638850250    0.80832804846488
H           1.41278465512208   -1.68291871418317    0.95405034326276
O           0.52316464948204    2.68171992252546   -1.96852020450449
H           0.19840676506333    2.33961953455454   -1.08595488837708
H           0.13525202170506    3.55179608795259   -2.07615110133766
O          -0.34910409139661    0.57948226536405   -3.07755196837766
H          -1.23044212380196    0.39885007038982   -2.50531945417289
H          -0.00999365125135    1.50160733343419   -2.77159097300160
H           0.36628988950681   -0.06568207506669   -2.68218627855096
N           0.13999082612082   -1.35125274598061    3.61578062128964
H           0.86023255104745   -1.27049324197062    4.32032772408751
H          -0.14128050529263   -0.06401056134784    2.83736878594330
H           0.46538753937293   -1.97797608191680    2.87053801047111
H          -0.68848593818753   -1.74710992783222    4.03836318829342
