    26
        -50.45448707  Gyration_radius:  2.49123357418 Dipole_moment: 2.154
 S          -0.41956327447117    0.02845154221987    0.82885871365848
O          -1.75136560395024    0.04517230694056    0.23033158048325
O           0.30368481061005   -1.19379114840227    0.46848724614295
O           0.33941824966587    1.21603666378608    0.42641487832447
O          -0.62824066271933    0.05703642235706    2.34907116182701
O          -2.53341292326765   -1.39341207094992   -1.72667009984367
H          -3.48897408495184   -1.31782827553798   -1.74183666810853
H          -2.23467490863318   -0.96966330620612   -0.87072245554224
O           2.69679957488178    0.00442371757982    0.91026974758484
H           2.13385999721471   -0.76819328914902    0.75598056535505
H           2.13682483024668    0.73409786920485    0.60140149707643
O           1.00506663054711   -1.08423334292916   -1.99444834623142
H           1.10037620576366   -1.99770024552305   -2.27201115346263
H           0.75849595353733   -1.11602473690489   -1.02338224877631
O          -1.16267226544332    2.08241770192487   -1.45390776302359
H          -1.98332371239821    1.89083799180551   -0.98489728276912
H          -0.46890803189030    1.87381173420461   -0.76443718623303
O          -0.95676930580034    0.12388053821962   -3.00025386007966
H          -0.07599794144502   -0.33413089848900   -2.68614119742518
H          -1.68028152932691   -0.50147752767761   -2.62022581729071
H          -1.02443630786464    1.01758340425148   -2.42262235687762
N           1.66355103493747    0.33176637333557    3.47037124461596
H           2.28773719245759    0.22878125786329    2.66172350969200
H           1.89305125200909   -0.37141343016643    4.15924834491175
H           1.80261558892839    1.24645731525238    3.87738857304733
H           0.28713922136364    0.16711342298243    2.82200938294037
