    26
        -50.45448759  Gyration_radius:  2.49147089433 Dipole_moment: 2.170
 S           0.33608108953087    0.79610967126009   -0.34274185474583
O           0.53278331078319    2.29586848955539   -0.60213491398641
O           0.52267063525274    0.52984127068875    1.08587744607900
O          -1.01150981495011    0.40813561211321   -0.76960810235599
O           1.34433002356058    0.10449287245995   -1.14109102226946
O          -0.44497567630860   -1.60578709297065   -2.24136772542586
H           0.32955619767569   -1.19023112755209   -2.63829079554180
H          -0.83212054552755   -0.86108117813922   -1.69755009510806
O           2.79101662363582   -1.84954801567386   -0.36724208595917
H           2.32067774830295   -0.99043941329680   -0.57270960523951
H           3.48733487925227   -1.93455212237055   -1.02069649710180
O          -2.08101178929017    1.09597423919024    1.60399373763301
H          -2.10202449104506    0.72567732075451    0.70733337036457
H          -1.16710128511191    0.92884933235248    1.87594488468214
O          -0.16826229350820   -1.88022202073774    1.61644092793858
H           0.32295054073487   -2.11649745167319    2.40601674851350
H           0.07343993465722   -0.92798703489582    1.41697367299678
O           0.57100948822065   -3.06190902357918   -0.47565888012451
H           1.53861512309881   -2.71161500584405   -0.46645697795063
H           0.18181720131572   -2.67111989591240    0.40756796086885
H           0.08281502531303   -2.52303061114548   -1.25525696716986
N          -1.38991378463054    3.56465713773022    0.52803942580956
H          -2.05534189799694    3.94879934156625   -0.12874693761663
H          -0.23456195809159    2.82798784065135   -0.15253318248498
H          -1.10774576315278    4.29173214252319    1.17113503835458
H          -1.84052850172569    2.80589474295409    1.05276242983387
