    26
        -50.46251697  Gyration_radius:  2.45982447569 Dipole_moment: 4.366
 S           0.84650826937234   -0.44166518930816    0.35001018814315
O          -0.37957032289788   -0.38590363777645    1.22339313396582
O           1.46324180084849    0.88486694647986    0.33115210706862
O           1.74590654722957   -1.47305726079947    0.88041045841868
O           0.39474369526949   -0.81297448940958   -1.01297534638182
O           0.28949599963448    3.15381414806175    1.00417860302051
H           0.86195884081785    2.35496624115498    0.98254206686752
H           0.51763576262353    3.63813417159953    0.20356142351255
O           1.25589188134786    2.51024586922592   -1.72110245036784
H           1.43017136809144    1.86291039678032   -0.99533404859025
H           1.94724336680480    2.37204520093501   -2.36898187116099
O          -1.62208442214775   -2.66779025394037    1.59605890841725
H          -1.63330352939763   -2.83833957951727    2.53904740947168
H          -1.24204563127454   -1.76055946137520    1.49301944131396
O          -1.07420506640935    1.15616259444125   -1.86676322254723
H          -0.36832462611229    1.81143592127441   -2.03421126254877
H          -0.57561390668336    0.32481902585752   -1.65951217807249
O          -1.67376290980014    1.57610113124312    0.53371509783120
H          -1.57169432979169    1.46093185418880   -0.50725334782840
H          -1.15712052894319    0.67860529347187    0.90531972448820
H          -1.03172015696229    2.32575197189820    0.79109722135532
N           0.30413000351963   -3.21836764247828   -0.15040140227635
H           0.60368482081526   -4.09445491382778   -0.56172936891823
H          -0.52571171612629   -3.30614993334953    0.47631037423266
H           1.07465708351935   -2.65636704026260    0.41448585143592
H           0.11988771665253   -2.45516135456824   -0.84603751084967
