    26
        -50.46811976  Gyration_radius:  2.534752436 Dipole_moment: 5.660
 S          -0.36819364789110   -0.41736885659894   -0.70954624956547
O           0.97165824288270   -0.42763708105466   -1.29780251878781
O          -0.98539845551241   -1.81248212147294   -0.82846410676614
O          -0.27842433140374   -0.08779791740257    0.72903896356301
O          -1.23683199612829    0.52184869113848   -1.39029934659592
O          -2.50458665421061    2.50912467325857   -0.24918817497355
H          -3.02344336575046    2.95794720917558   -0.91825430520531
H          -2.17029290803353    1.68160730012833   -0.67293252818481
O           2.66835632526399   -1.96565230763545    0.00074420660864
H           2.09581684011943   -1.31967175460230   -0.46949828332551
H           3.24497137115536   -2.34153937519683   -0.66673173496109
O          -0.61029243400956   -1.91708452330467    2.64840878499320
H          -0.46053010287246   -1.17255312659927    2.03111601225086
H          -1.56083217229917   -2.02723337947413    2.70687598132485
O           1.09348081069949    2.12203645596699   -1.81647405892657
H           0.35793891668202    2.19013471296964   -2.43145304136118
H           1.20196447281850    1.14836129688452   -1.68754159484402
O           0.44199197574975   -3.32224282456802    0.60545915132803
H          -0.41180594045985   -2.47874578261541   -0.28617611564485
H           1.34449771344318   -2.95216421505756    0.48374069543798
H           0.14937091812906   -3.01578680294500    1.48901222385328
N           0.02310461850550    2.46202372184056    0.57203354522215
H          -0.95882964337671    2.77145057244647    0.40287289743771
H          -0.05325145213304    1.41347015213445    0.79082256849348
H           0.54893054210652    2.49981040750898   -0.34965202824552
H           0.48063036653523    2.98014488507921    1.31388906688200
