    26
        -50.46843470  Gyration_radius:  2.53763414934 Dipole_moment: 4.845
 S           0.54648784856756   -0.53631931245742   -0.51568864980590
O           0.76967898425788   -0.52705315937353   -2.03049029853749
O          -0.41564983961806   -1.58278291684905   -0.17299065589267
O           1.82469415319537   -0.75375261106017    0.12936694142589
O           0.00195058048094    0.78853224570992   -0.14145580654633
O          -2.83866254449813   -1.25395964234779   -1.14308751482011
H          -3.16440948749364   -2.13269368815366   -1.34537675676837
H          -1.97508211914463   -1.38308645715836   -0.69139848157096
O           2.94481114168237    0.83801475391392    1.89151836887115
H           3.45259671280089    1.50534182402353    1.42798362084314
H           2.65786996569826    0.19067022567813    1.20309203862490
O           0.34300688109963   -1.93467435899300    2.29622596629125
H          -0.03468480256489   -1.94245355926374    1.38420933913389
H           1.26964680637020   -2.15855933539422    2.17008575041744
O          -1.02670855454580    2.46053104087890   -1.95240966865234
H          -0.68911298686745    1.91534535553000   -1.21251141504359
H          -0.25942892418192    2.87070500708264   -2.35503153962234
O          -1.47335810451197    0.03876083338380   -3.04627381644478
H          -1.50923888211930    0.98994915083844   -2.81493350121888
H          -0.13297633400758   -0.34051939457925   -2.49367555861199
H          -2.11861483679265   -0.40077368143494   -2.44879365849014
N           0.34675891362728    0.69428276257174    2.40880990788323
H          -0.23695669336038    1.22321065863452    3.04720691881827
H           0.27486143641686   -0.35750946680848    2.55538460157954
H           0.08278967423572    0.84338906057923    1.38113280523878
H           1.35973101125385    0.94540466506059    2.46910106289034
