    26
        -50.46672135  Gyration_radius:  2.36613182354 Dipole_moment: 8.157
 S           0.29392992748656    0.59300303407957    1.31839166100833
O          -0.71396334912097   -0.42814545697373    1.57074315463646
O          -0.30421516413825    1.98293380778020    1.52719120593099
O           1.44733963840270    0.45852950141657    2.20327248008545
O           0.76017424772519    0.50063399673878   -0.08114255293665
O           0.28658877487413   -2.59717040489581    0.49830115956411
H          -0.20431061099014   -1.91464320838184    1.01667839507944
H          -0.01578637284785   -2.47084716359475   -0.41325802413861
O          -0.43277731421312   -1.14084797314915   -1.75913184763177
H          -0.44213637304834   -0.70760324649043   -2.61471844014105
H           0.01791078620675   -0.51279813441129   -1.14833629503841
O          -2.66762658225854   -0.36487085615938   -0.25885315557454
H          -2.12608521421769   -0.77352520663266   -0.95192096046295
H          -2.14417536050357   -0.47331029383594    0.55643112729240
O          -0.00289230700803    2.19357738370785   -1.97730236351561
H           0.37351140129677    1.60174681454442   -1.29134542115840
H           0.47828615105017    3.01971808923131   -1.91382525236499
O          -2.08865123266048    2.21747637248261   -0.23508961999904
H          -2.49166864663766    1.31504840297994   -0.28283483919604
H          -1.08507929427438    2.12208595593554    0.85778808383577
H          -1.52986646815644    2.30443771996821   -1.03211479787774
N           2.55819594361993   -1.40463728429592    0.87653932414393
H           2.18072594357176   -0.59965027514069    1.52204224859972
H           3.30356737719256   -1.93107962695116    1.32161966313461
H           1.67964816192096   -2.01563480191595    0.68111514074094
H           2.86935593672630   -0.97442714603507    0.00975995598797
