    26
        -50.45610041  Gyration_radius:  2.43400628155 Dipole_moment: 1.779
 S          -0.82440257725807   -0.39823256970215    0.53296987342274
O           0.64311733784348   -0.59308388668769    0.58981665722708
O          -1.39927716364858   -0.83240598141540    1.88083176248736
O          -1.12949259665418    1.00130032156903    0.27237128999120
O          -1.40080612402661   -1.26049948068330   -0.49658426114891
O           1.13551734490563    1.31911738913662   -1.07615670698512
H           0.23381907432909    1.65280031559869   -0.92583761678053
H           1.20644865384573    0.63410943528329   -0.36460963214341
O           0.39355324264653    2.47370849180792    1.87624958009876
H          -0.27883962394835    2.02357202166649    1.32185235412077
H           1.11480557149842    2.69670239579407    1.28354442224422
O          -1.68321956509584   -0.18449389604925   -2.81293675699598
H          -1.70080413729364   -0.51661524869329   -1.87160802883082
H          -2.30714239972173   -0.72336697323439   -3.30248269997025
O           0.92552311590451   -2.27339234257096   -1.34915585989058
H           1.02014477479391   -1.72955049656464   -0.52395134434360
H          -0.00524708467885   -2.53495691285213   -1.30140144612248
O           0.83537716293828   -0.33478728840596   -2.94547966880921
H          -0.18516353169266   -0.25570192907347   -3.06133888098860
H           1.06359643170800    0.43754039209161   -2.26966533101424
H           0.96711339509133   -1.21342216845555   -2.37002358914907
N           0.32972461639489    0.14568470845691    3.46777631501710
H           1.18253754932838   -0.36940627031638    3.29527048894213
H          -0.73513692659375   -0.45212563338030    2.59874588628861
H           0.15931518747340    0.19764843693398    4.46279633517059
H           0.43893826313153    1.08985715669062    3.08900684825938
