    26
        -50.46868362  Gyration_radius:  2.55918582268 Dipole_moment: 4.213
 S           0.33300970373410    0.43850435790907   -0.67620883587722
O           1.12946337767474   -0.45191145892673   -1.51111170219884
O           0.64168229274649    1.83488843217321   -0.82535932978647
O          -1.13928115710137    0.18643764764671   -1.12613870797887
O           0.40104537290336    0.00581958917499    0.73435905475165
O          -0.57647205897031   -2.44678971901395   -1.74794904887799
H           0.06980426283317   -1.71523741293667   -1.87246127415264
H          -1.43280190713243   -2.01378347920238   -1.80188758158522
O          -1.05268996378587    1.49128970047085    2.44392903253012
H          -0.72468549843316    2.38755023084850    2.29255019464189
H          -0.44468229840738    0.91118912209144    1.94905828468525
O          -0.42755003455018    3.66264140747857    0.72157852404499
H           0.03225245327005    3.00304148319406    0.15245787173713
H           0.00687637122682    4.49964329066439    0.55405595481779
O           2.92958369658898   -2.19376109863613   -0.65254502854517
H           3.24417930723857   -2.66908544454920   -1.42368257742206
H           2.41853772729301   -1.42863000962884   -0.99966598095348
O          -2.49841271407253    1.84490052861527    0.25123535616831
H          -1.71806979536528    0.84912567311416   -0.62397957960319
H          -2.20772912867278    1.61070756308629    1.16589092715565
H          -2.10233365661283    2.71647770631078    0.11020311644620
N           0.61420339628201   -2.54201857496801    0.60797264653925
H           1.60612081068892   -2.65328584228918    0.29232838875462
H           0.50417977460324   -1.48270213706418    0.79109237983451
H           0.00344609844737   -2.74077249846409   -0.22690792911879
H           0.39032355756774   -3.10423905711766    1.42118583399401
