    26
        -50.46379213  Gyration_radius:  2.52784507579 Dipole_moment: 3.668
 S          -0.25171033603588   -0.32440498621587    0.63646001583601
O          -1.23304667042852   -0.34373679300823   -0.57993115981055
O           0.02344430140187   -1.70629950231480    0.93855354803006
O           0.97748423226072    0.34034682310170    0.11015031376409
O          -0.83456581800788    0.44153156384595    1.70835476921300
O          -3.23386049574999    1.58245215800830    1.58504591802444
H          -2.36350962593970    1.16806293870114    1.76261389148637
H          -3.89303513971319    0.92881272650038    1.82178726809877
O           0.07677087644772    2.83613645806128    0.47909213193875
H           0.54869405465474    1.99264166315012    0.35461729322483
H          -0.25747246925941    2.80069084822945    1.38000446429626
O           3.10219025927010   -1.24483104305913    0.69765399636348
H           3.09617174488013   -1.43340790175476    1.63763214608179
H           2.39777714067641   -0.58438062368641    0.55541756044878
O           1.62334242880864   -3.03384063442235   -0.65253150075360
H           2.42226257259482   -2.64648832821091   -0.23829259772089
H           0.91805807593297   -2.79898756485807   -0.00466980364425
O          -2.10093600129068    2.00837109452945   -0.81234894352633
H          -2.73580179364692    2.02141847916142   -0.06744313701904
H          -1.32088215836572    2.51081386244688   -0.47964908765384
H          -1.61877692262999    0.60589156591365   -0.70965093425626
N           0.93706962047749   -1.01775047647895   -2.07483339812982
H           1.45947057569104   -0.75293119645289   -2.90387227946644
H           1.06231464237768   -0.32514092475801   -1.26612589160798
H          -0.06868178815188   -1.05131573878461   -2.24665903419521
H           1.26722872374368   -1.97365446764414   -1.63137554902220
