    26
        -50.46379160  Gyration_radius:  2.52822675391 Dipole_moment: 3.658
 S          -0.12492400054627   -0.67220391411453    0.31718759903172
O          -0.14256117332772   -0.02989207098551   -1.03068900229703
O          -1.44389156583942   -1.10784002766350    0.69910819326413
O           0.90254289824017   -1.68115741690802    0.37138012699939
O           0.34559880650587    0.46369210638898    1.28231571825396
O           1.26236844691863   -1.61534228862730   -2.72939858186699
H           0.91040753796250   -2.50576919078438   -2.68176565978684
H           0.65804159107724   -1.06283221161969   -2.19829093023925
O           3.16391283384942   -1.23548357951876   -0.87123958014641
H           2.78088193400720   -1.47793987600162   -1.73975358531291
H           2.48411928856121   -1.57304254752542   -0.24201771592445
O          -2.79257947083211   -0.11870988062423    2.76684924276299
H          -2.52024300065462   -0.58427596075956    3.55845428209425
H          -2.37326811006463   -0.58947739288535    2.01627433690025
O          -2.56908594206074    1.06802907666398   -0.73955676532147
H          -3.08747494524059    0.32811116415446   -0.41021571193797
H          -1.71550565707540    0.67750873709529   -1.00128476579069
O          -1.63345251579605    1.99187079233820    1.57712552838354
H          -2.16944095034592    1.44705224882628    2.18847071399377
H          -0.44145167334443    1.11543603579928    1.43579113357562
H          -2.06828889167331    1.87779935519399    0.69986642984353
N           2.13790781713490    1.10184087398244   -0.66040517563186
H           1.16101298281214    0.76931049637358   -0.95132165650727
H           2.74924843975307    0.18839685454731   -0.76394385556091
H           2.47201925908927    1.87966316519512   -1.22052788855305
H           2.05410606089003    1.34525544145702    0.32758755977541
