    26
        -50.46264613  Gyration_radius:  2.56073492211 Dipole_moment: 5.097
 S          -0.88711276026815    0.25462734121410    0.62256270026129
O          -0.66614618740968    1.33502849852056    1.58006657965252
O          -1.86314241832068   -0.72076813629285    1.30518458071852
O          -1.44998580915108    0.71914166511100   -0.62895674340651
O           0.37812041799319   -0.47841369238768    0.39535366372377
O           0.19416383688244   -2.66309965008533   -1.18531844025494
H           0.39067176944192   -1.90987194760407   -0.59911999314232
H          -0.14772056973444   -2.27283229483589   -1.99833688499208
O          -1.85306088128369   -1.06009444880425   -2.51640759672198
H          -2.30575069329803   -0.63266049836720   -3.24442129373527
H          -1.69005509241615   -0.35573308687115   -1.84738278011641
O           1.14207019532141    1.60046604903594   -1.08475427443361
H           1.02500402793906    0.72171689240277   -0.68150528522978
H           0.23718457646587    1.89351661696292   -1.23670580061384
O           2.77629092376288    2.71194555992526    0.69766450095429
H           2.27712575196662    2.36931746880517   -0.08212445463873
H           2.45654417167992    3.60415988215588    0.84389454091844
O          -2.32223007138563   -2.63926914298819   -0.31694519382449
H          -2.55806712414623   -2.18715930701060   -1.14340448380491
H          -1.40636390914071   -2.95419642935484   -0.48987891840535
H          -2.09058555923233   -1.50368657287043    0.69412154474651
N           1.71356586157518    0.82873277910616    2.22636356266262
H           1.65693306220365   -0.00339801846575    1.61529163285274
H           0.67372140062646    1.15652152143614    2.15885765851726
H           2.02554464965542    0.61257101490545    3.16625812285781
H           2.29328041029520    1.57343792635768    1.74964305548101
