    26
        -50.46043157  Gyration_radius:  2.42444342619 Dipole_moment: 5.356
 S          -0.00209894595222    0.28587847744149    1.38368629399930
O           0.04043206837027    1.48426618720773    0.52012430081479
O           0.66908904919974   -0.83132907018702    0.49706523402570
O           0.85092066662792    0.44266411289524    2.53751972504112
O          -1.36143020045772   -0.12145261413105    1.65893335476573
O          -0.16925111959793    0.78080605719129   -2.05980565584201
H          -0.26101366071881    1.02114295043914   -1.11575912579267
H          -0.82987368409327    1.30676522561025   -2.51543541058914
O           3.18014687986186   -0.16734298523228    1.59768725437843
H           3.10273207332524   -1.11891030278364    1.49290843035469
H           2.36164788015379    0.09797030120346    2.09961513678416
O          -1.20504875468890   -2.52202544427252    0.38814430631636
H          -1.68364113712076   -1.98656226669053    1.03629576366583
H           0.00451223166316   -1.59907523071387    0.42863174598418
O          -2.91241666990309    0.74538356705457   -0.31317070341764
H          -3.75123853263342    0.99715675150305    0.07506770771609
H          -2.32746615394345    0.51161732245879    0.43891352203673
O          -1.99931291990607   -1.32161958763483   -1.82867480601195
H          -2.54729861508568   -0.64150305139020   -1.39637742426984
H          -1.19749374674099   -0.84186105799494   -2.08990204548606
H          -1.56696872125567   -2.25985493605059   -0.49760345318394
N           2.35435628425085    1.15998308118042   -0.49458351582272
H           2.82904402540445    0.57768338350692    0.27373987643825
H           2.90852632028871    1.96511194429496   -0.76850057486749
H           2.10840930176032    0.58621630730878   -1.30114254463200
H           1.40473608119419    1.44889089778617   -0.04737737240548
