    26
        -50.46843471  Gyration_radius:  2.53805206987 Dipole_moment: 4.850
 S          -0.59529516479879   -0.69451104758794    0.12087456970136
O          -1.32354776850683   -1.54542537345614   -0.92310922787940
O          -1.51968934616587   -0.41039655565396    1.19878648412547
O           0.58417348272322   -1.41537794985887    0.59779933241201
O          -0.18108684743007    0.56181743698025   -0.54384231153999
O           2.43528768213569   -1.88410734488368   -1.21169107843288
H           2.81027128616952   -2.73871538185782   -0.99217718440081
H           1.81394283569943   -1.66587460458862   -0.48187927495603
O           0.78740310807934   -0.22767718433313    2.90924334457189
H          -0.07657510665811   -0.41798927261053    3.28603237451800
H           0.82534084742630   -0.78564592903834    2.09571392629896
O          -2.21211612574896    1.97939075610578    2.03757208429125
H          -2.94907146968513    2.29146265602319    1.51078982975517
H          -2.07725185288995    1.03543028400386    1.78063091208996
O          -0.11420993589401    0.80722290917679   -3.20223421378460
H          -1.02680407398813    0.97056558698170   -3.44614688247976
H          -0.08699203438339    0.81285709827727   -2.22354157397312
O           0.30721112432505   -1.82809664348011   -2.83196727381410
H           0.26726508651152   -0.92230000433832   -3.20286301559615
H           1.18106003633593   -1.88992570290547   -2.38584818034157
H          -0.67932269730484   -1.72334158894830   -1.70889245990040
N           0.39178625583543    1.97775215078366    1.52972628811421
H           1.06435728148790    2.73547372024273    1.49055211747325
H          -0.56536539468959    2.28789465623255    1.81355467033716
H           0.25857343009761    1.48896595970851    0.58568602018176
H           0.68065537130692    1.20055137899598    2.19723069323164
