    26
        -50.46949759  Gyration_radius:  2.56242304403 Dipole_moment: 5.889
 S          -0.38611438009763   -0.01458863038912   -0.40440956620601
O          -0.53007992476315    0.44147362567441    0.99207628836550
O          -1.55742050176884   -0.71208294634872   -0.86857648901402
O           0.02488999965674    1.09782383535705   -1.25425301271052
O           0.82951867308541   -0.98487913808192   -0.41987860641486
O          -1.56474934098630   -3.28515489937865   -1.53891701368714
H          -1.27119585182337   -3.35531738019820   -2.44813006410663
H          -1.67297161560356   -2.32731937582860   -1.36073795078762
O          -0.10831202736195    3.66343193847940   -0.61864213890953
H           0.27078204942340    4.15122146207435   -1.35211035149233
H          -0.23030217605837    2.74303539591805   -0.94326567638655
O           2.59073646732424    1.14417650087470   -0.65024655865777
H           1.70262398046866    1.12759340828494   -1.07376084001076
H           2.80907220052147    0.21560578559257   -0.53169473542377
O          -1.96545835136996   -1.66713802296157    1.78102278873412
H          -2.61383015753153   -1.71367715049614    1.07237624932930
H          -1.49636915255157   -0.82529447504246    1.63354989064265
O          -0.01604430375118   -3.09993519982184    0.65809095005601
H          -0.70327336179941   -2.73063170976800    1.25968827560743
H          -0.51976820835102   -3.46211615237459   -0.09822166585683
H           0.54230128573982   -1.86313012787639    0.03629483850483
N           1.19643133101130    2.31338428558597    1.26427190961336
H           0.45055836353637    1.53166984933007    1.28509086002810
H           1.97875861563040    1.92366284003277    0.67657554467526
H           0.75455730523738    3.08548624167046    0.71212524578040
H           1.48565908217691    2.60270003966817    2.19168183832089
