    26
        -50.46843465  Gyration_radius:  2.53816179888 Dipole_moment: 4.853
 S          -0.88716704964000   -0.17964972724418   -0.18078681055085
O          -1.31592633836448    0.47221641333625   -1.40082448763976
O           0.55055442440329   -0.52376911844023   -0.26109988810411
O          -1.13183295651307    0.65793877866048    0.99262667199054
O          -1.66377915557202   -1.49160441840289   -0.03973011757008
O          -0.27855979782087   -0.31639055755192    3.28251998602902
H          -0.54394338140713    0.12804271083081    2.44687256320708
H          -0.91679211410041   -0.04000423796434    3.94257599971752
O           0.24030608370852    1.17082006828107   -3.39672408859960
H           0.33173552224782    0.42746958041896   -3.99428558954332
H          -0.45268314711440    0.90885697076798   -2.74371256965352
O          -0.61662970151221    2.95568706530251   -0.12538205130874
H          -1.24803363588624    2.94890928373324   -0.85061057738533
H          -0.87246130554279    2.17799618904423    0.42624427512968
O           1.48362334622449   -2.91378489185244    0.47983392618647
H           1.24538808640403   -2.00557554873019    0.20234310780381
H           1.30075318713125   -3.48054695877370   -0.27139952839806
O          -0.71675076833335   -2.62800591240430    2.00840564398021
H          -1.33886256563819   -1.97505823570390    0.81163094247822
H           0.14738082738346   -2.90866919915523    1.64214896853334
H          -0.51352734701270   -1.88298450642590    2.61674473870524
N           1.48310956087496    1.71875364348209   -1.11786812719720
H           1.24786126893665    0.76043760599509   -0.70055421736276
H           0.76005674456839    2.37927785317464   -0.70076708508588
H           2.43684885120513    2.00763825622023   -0.93069119319877
H           1.26933136136556    1.63199888338883   -2.13751051218068
