    26
        -50.46477382  Gyration_radius:  2.49509963584 Dipole_moment: 5.659
 S           1.08119517846303   -0.71375420031641   -0.47098194256132
O           1.35392134879800   -1.09148301266051   -1.93747830578046
O           2.17507502427664   -1.20916796208513    0.34457821694073
O           0.94649270313944    0.73567140037591   -0.38782036710410
O          -0.18758129805450   -1.36721347254260   -0.07566463564433
O          -2.28849265248346   -0.10411201995626   -0.94719341041777
H          -1.51729017322261   -0.61168287371434   -0.59361155589825
H          -2.98962758997066   -0.74180345393967   -1.09019017637123
O          -1.08959064184919    1.46775372546351    1.13937075857051
H          -0.29473087343262    1.31063899385759    0.58749524190390
H          -1.82009669600754    1.14663115777802    0.59712641426245
O          -0.25101754591047    0.51154123701795    3.42175570758433
H          -0.68396420816083    0.88484034173396    2.60547251688334
H           0.36603297717174    1.18653324272312    3.70987551909648
O           0.84747252611463    2.29792691390168   -2.54962969825280
H           1.74020037245023    2.33437930011735   -2.89646225436055
H           0.91235270911441    1.85489651874161   -1.67891584468349
O          -0.58162995458811    0.09574046803714   -3.10577768659354
H           0.58673963139008   -0.69180415775516   -2.47471654710788
H          -1.29979733140199    0.13567117141115   -2.44628674092631
H          -0.18471361282773    0.99259708428782   -3.11081717670543
N           0.63912736395239   -1.70900156879974    2.32317577384859
H          -0.00783314541278   -1.77503886111790    1.49327762044349
H           0.34850959123785   -0.85311494312909    2.88401643857619
H           0.66738258931760   -2.55487023896682    2.88182291961039
H           1.53186370791213   -1.53177480046294    1.77757921468559
