    26
        -50.46519388  Gyration_radius:  2.61199548281 Dipole_moment: 4.379
 S           0.45934023967718   -0.32143921207534    0.56874207950837
O           1.01256371204483    0.47393882261501    1.64644365340112
O           1.56450282297498   -1.27087254796871    0.03964625819159
O          -0.68084810565866   -1.12249587507328    0.99154691886325
O           0.08708676831829    0.55516507265044   -0.56266789875323
O          -1.72666467205273    0.66637098822835    2.58264142200948
H          -1.46314705908065   -0.11094300743522    2.03387929948073
H          -1.00102609197109    0.77349477567409    3.20442252312316
O          -0.56481155062338   -2.54313211283297   -2.98553855413415
H          -0.27992230992922   -3.10089299044234   -3.71101176387127
H           0.01740410846515   -1.74926857081309   -2.99954523618913
O           1.18691516150747   -0.52776377809669   -2.72705885696521
H           1.96199173373274   -0.90952656101810   -2.30590156265122
H           0.73793375429480   -0.03072959847764   -2.01284462859211
O           1.14224279408474    3.09552481882725    1.70718644254183
H           1.20210774823475    2.11266349477448    1.78649705552916
H           1.91887369381898    3.36393229206781    1.21380116934962
O           0.04912344847271   -3.23319497790260   -0.47119624706105
H           1.07887521788529   -2.13746596751895   -0.18501875223675
H          -0.58099053588001   -2.77486872156810    0.10737231230759
H          -0.26528686035262   -3.08312379041394   -1.39265695467959
N          -1.20284517127964    2.41001107276262    0.68099532527012
H          -1.91353399617217    2.97741389864265    0.23289641837959
H          -0.39836408261200    2.96761802050307    1.05503233921493
H          -1.58265315600339    1.82335877699257    1.48313736934794
H          -0.75886761190452    1.69622567793054    0.01919989860233
