    26
        -50.45899154  Gyration_radius:  2.38921658492 Dipole_moment: 5.886
 S          -0.43362240603273    0.76852639276782    0.02659170636745
O          -0.89227312389171    0.85326896539549    1.43703199466383
O          -1.54271699029816    1.10025420607548   -0.88273225785896
O           0.70526875247591    1.69077766678265   -0.18515130170636
O           0.03606709039099   -0.60523365744011   -0.25235377929190
O          -0.35008868020265   -2.43927414967769    1.54351389965869
H          -1.31167672652647   -2.29518584343749    1.62194674815285
H          -0.12452308259663   -1.92153139212054    0.73210066626467
O           0.84987507654514   -0.90458101021345   -2.70914736813968
H           0.41258201493349   -1.69432836232197   -3.03084118117376
H           0.62614008852773   -0.84983555869461   -1.74298550602087
O           2.43685169866733    0.52611388213757    1.36874295231763
H           1.81233755262908    0.94222652857310    0.71770508161223
H           2.92213048494840    1.25210229985345    1.76647173909751
O          -2.70023669150268   -1.10299821397747    1.14017918475971
H          -3.03055480214696   -0.99063444549730    0.24721064071970
H          -2.18392612571092   -0.29512386000038    1.31691276002716
O           0.60197641648738   -0.51379203235796    2.82544659623704
H          -0.09633121387508    0.14856049546690    2.33577195750557
H           0.27777820506088   -1.44115364161200    2.42262728994872
H           1.45758249384167   -0.24953924809280    2.34491805723066
N           0.11559792811939    1.63317425311866   -2.67839701118149
H           0.45416280503425    0.69593716896095   -2.99921333829567
H           0.06498554376009    2.33454043056808   -3.40780721009368
H          -0.80617158175155    1.45391722243488   -2.11144579514391
H           0.69878528311679    1.90381189331061   -1.84709652566236
