    26
        -50.46708051  Gyration_radius:  2.46815293804 Dipole_moment: 4.697
 S          -0.92141226663783   -0.08267106766341   -0.69050114991785
O          -0.26701112847385    0.75508479380352   -1.69310426516310
O           0.08181653910847   -0.13741028475088    0.53110522909583
O          -2.10143606709370    0.55945445759285   -0.12833489257421
O          -1.14195446811201   -1.43495386693676   -1.14295673705409
O          -0.29368345166224    0.77367314407232    3.07381025192467
H          -0.02190677848759    0.30309790281627    2.26463685521553
H          -0.85469941433330    0.16713519361070    3.56024536357428
O           0.96590944140676    2.62830625177937   -0.38787478392506
H           0.53368554026269    1.98660440914916   -1.00721778458207
H           1.75880655215047    2.18841106833023   -0.07322881891566
O           1.12269582792983   -1.21656163849208   -2.77608115038619
H           0.40737984485910   -1.85699887670873   -2.83088445096697
H           0.67073127509854   -0.37949245152298   -2.54815642464741
O           0.07176894779060   -3.46364552181093    0.05104374767660
H          -0.18326385644361   -4.27182311689897   -0.39598656844729
H          -0.47971032076934   -2.75062991729759   -0.33837237519222
O           1.97527980782252   -1.57784039316093   -0.28618721279907
H           1.55831899004973   -2.43256659857389   -0.06626689181475
H           1.86654724262609   -1.47892980348972   -1.26355309545693
H           0.89567088768546   -0.69808588097273    0.23354918442362
N          -1.14048274163509    2.51908442866545    1.20192717963368
H          -1.64918783867671    1.75018340174064    0.63046494950838
H          -1.71570795099227    3.34502102768359    1.32442767745464
H          -0.87765783917846    2.07842497464093    2.10670237272444
H          -0.26049678430864    2.72712836439084    0.65079378059785
