    26
        -50.46452144  Gyration_radius:  2.52833587557 Dipole_moment: 7.096
 S           0.43344720161085   -0.58857120558694   -0.31927793473025
O           0.08282736519153   -1.32909566624288   -1.50633280458256
O           1.62625261180106    0.24372338958310   -0.49178531178857
O          -0.74688055973745    0.42160834012303   -0.01796217534736
O           0.52695678915800   -1.38823427287814    0.88963525333855
O          -2.12955280431681   -0.90768467751752   -2.89914179122575
H          -1.30267508512900   -1.17416122401635   -2.44132553418893
H          -2.83139626882690   -1.42365785147331   -2.50097296912938
O           2.45101757634736    0.38596362254188    1.93660742591222
H           2.53075040218321   -0.55154707178162    2.13348822284762
H           2.27250353887352    0.40467964655886    0.95695382633706
O          -0.91242911581194   -1.42883639840079    3.05916235034607
H          -0.47856814487107   -1.55866898162676    2.18017690884460
H          -0.58783044267809   -2.13384354888467    3.62134080641118
O           1.13856859733059    0.82703094673217   -3.02659433194102
H           1.48030774964245    0.68425308342917   -2.12136314607247
H           0.94871175221038   -0.05634256366303   -3.35606642034775
O          -1.26819706072486    1.53098234207554   -2.19244618947351
H          -1.78625085506589    0.80865760762949   -2.60452200347042
H          -0.98245919652346    0.92950678829027   -0.90443760281751
H          -0.37958172895298    1.47552529218163   -2.62491343087122
N          -0.02658473130768    0.99836775392768    2.47214126169879
H          -0.25300612255681    1.88107906305674    2.91812821683795
H          -0.43846085920174    0.17144477410959    2.96828863380634
H          -0.40138580175233    0.94429032855175    1.49584854623822
H           1.03391519311336    0.83353047327005    2.37537019335933
