    26
        -50.45406680  Gyration_radius:  2.48466314069 Dipole_moment: 2.031
 S           0.37590309794287   -0.77542571510821    0.62024956768476
O           0.80975902873849    0.61082570998435    0.77116485901816
O           0.52381294582358   -1.48717700807304    1.97200004373052
O          -1.03340462554235   -0.82823655835284    0.20894022600259
O           1.20133440718700   -1.49109954391070   -0.34989442121354
O          -0.77404070659682   -1.54358223812988   -2.23739514149478
H          -0.04430021372029   -2.14598602997263   -2.04867272915463
H          -1.05843407219838   -1.26438485385659   -1.32251733455482
O           2.62599141136938   -0.13682670740741   -1.98579498007375
H           3.21163611243780   -0.77352740082084   -2.39959654741380
H           2.17085849518362   -0.62285968911638   -1.23826334421031
O          -2.75085013231378    0.40808969300581    1.83166642866490
H          -2.13936199676885    0.00849660973481    1.17808808822058
H          -3.56794584157930   -0.08701429838088    1.75607803496051
O          -0.13900181511388    2.08625802533771   -1.08048503838305
H           0.16451543186341    1.51523547060254   -0.31023066038853
H           0.40474012857151    2.87638552401590   -1.04811701810385
O           0.40006753340907    0.54193333339634   -2.98347623847328
H           1.36355897995674    0.30570685334064   -2.70664713342443
H          -0.16391460468448   -0.32886955915092   -2.76100052170809
H           0.10615061464311    1.24482346198538   -2.26361667840580
N          -0.36908516525873    0.43348071536053    3.38124500232445
H          -0.30058343102993    0.57261870984838    4.38031636380611
H          -1.34238872642421    0.51884488308748    3.08896849992358
H           0.15947337160196    1.14996404542681    2.89806063692017
H           0.16550975249804   -0.78767345285617    2.64893004575086
