    26
        -50.46452147  Gyration_radius:  2.52835090431 Dipole_moment: 7.099
 S          -0.53064722486496   -0.56739864808872    0.18120484522182
O          -1.21283144793149   -1.40341026533500   -0.77596581606422
O           0.31910731873976   -1.28390823922247    1.11615507822618
O           0.47579859319063    0.35515437209846   -0.61908473828830
O          -1.42812130471224    0.35136666732266    0.88523930760083
O          -0.82846520086178   -1.25368346862847   -3.39167453518080
H          -0.07410051160108   -1.80193176898693   -3.61052323360957
H          -1.02096533982628   -1.42177509448295   -2.44346761506316
O           2.90303292363858   -1.31906353811020    1.43732857416542
H           3.11190718002974   -1.95961590166090    2.11890078219441
H           1.95170524089398   -1.46308163634196    1.20946483490864
O          -0.11650090472691    0.70607533590839    3.06503576921520
H          -0.74491389579923    0.65167319768173    2.29423931941127
H          -0.02889157906815   -0.20790151686042    3.34963189513472
O          -3.03206761048128    0.74072216679940   -1.18368808408778
H          -2.56747802586138    0.68087804837614   -0.32511936079592
H          -3.16808333066975   -0.17344306107038   -1.44985551937224
O          -0.82681789454144    1.28649253491443   -2.53393056680105
H          -0.03977922869277    0.78825852876338   -1.42281095655522
H          -0.81075134768191    0.49978020090572   -3.11773357632249
H          -1.73349579693547    1.28119543053994   -2.13693392319772
N           1.90691080654772    1.13590239678943    1.47714823110903
H           2.40237007896205    2.02085350321247    1.50402423890997
H           2.54284841368901    0.30753636402523    1.57200712242016
H           1.14258510063799    1.05637945150780    2.23259401655532
H           1.40764500792874    0.99294493994619    0.56781389025524
