    26
        -50.46972936  Gyration_radius:  2.43089130412 Dipole_moment: 5.127
 S          -0.61996461618527   -1.34876521391629    0.51577623339827
O          -0.89915642834841    0.18983170290376    0.24002710401011
O           0.48069424400150   -1.68835867958842   -0.40892706550778
O          -0.20898306107422   -1.47045212623817    1.89418778534673
O          -1.85277396963936   -2.00238156963606    0.16268752931705
O           0.67147044194687    2.20106590006459   -1.61247135590636
H          -0.04256279625005    2.81960758776725   -1.44727834939814
H           1.07191606045593    2.02181993027185   -0.74284820878943
O           0.18444641128076    0.74805291855225    3.28715790581535
H          -0.52742536133380    0.85615111023745    3.91834286053342
H           0.02871298524703   -0.11832201909375    2.84978669669491
O           2.48867660726718   -0.89303137363203    1.10604032432134
H           2.22481243868747   -1.20846455219473    1.97529894319260
H           1.85927759385771   -1.31995949568005    0.48873179998327
O          -2.68345675683491   -0.63605215014333   -1.87560236325438
H          -2.45486075062492   -1.25913240309482   -1.13585474355890
H          -3.11762934621978    0.10200185011839   -1.44289139825693
O           1.28432766345537    1.43577753859478    0.94579636769890
H           1.00913356301514    1.54327328904359    1.87356481887421
H           1.90427622875163    0.66046732812893    0.96924059611772
H          -0.08763967647533    0.68850998027462    0.52927111623664
N          -0.13271697673778   -0.25492446114789   -2.45124117134407
H           0.19525730622292   -0.54808339974157   -3.36534756687855
H           0.18889721247711    0.71373497502975   -2.22119224418513
H          -1.18844050279964   -0.32124455031527   -2.37172047827394
H           0.22371151584714   -0.91112211682023   -1.68053512617612
