    26
        -50.46824843  Gyration_radius:  2.38826570537 Dipole_moment: 4.293
 S          -1.21538587475542   -0.26232501639884   -0.35315893709234
O          -0.93388527168426   -0.05066303244877    1.07453367477244
O           0.05979936413445    0.26914260606669   -1.10799254246063
O          -1.38936583162353   -1.65110178883015   -0.69176407377505
O          -2.28578540197942    0.62056032013318   -0.79665494729150
O           0.85151471825952    2.83255356592303   -0.31454621995137
H           1.29742486079005    2.29860248671101    0.38878088675421
H           0.75274803773100    2.21331288022431   -1.04961379866903
O           0.23613540697620   -2.41282439150427    1.49158079790482
H          -0.28600411221622   -3.01389678993702    0.95252145626233
H          -0.28814245480055   -1.59064263070694    1.52662935101822
O           0.53927431445873   -2.84995545081569   -2.10467504037566
H           0.31635781989071   -2.81277540291387   -3.03534530545233
H          -0.23730641466360   -2.49465659200735   -1.62517654556376
O           1.52073037890837    0.99264711750315    1.46122107932605
H           0.64140081461715    0.56560579016786    1.44557139255343
H           2.13060237411479    0.33444775051963    1.11387949221129
O           1.87378395008169   -1.35116055408439   -0.30902430868138
H           1.76981953710010   -1.97982024498803   -1.04565200756657
H           0.82732802436941   -0.33207545122792   -0.82642494920967
H           1.43089414477113   -1.80533525509191    0.45038977342280
N          -1.53976376433814    2.53725012586689    0.68869485430387
H          -1.97420673701456    1.82653290919610   -0.01804962906602
H          -2.14280403497470    3.32996774786736    0.88316712337113
H          -1.37266059982658    1.96256348776332    1.51840764806256
H          -0.58250326832461    2.82404582300861    0.28270078519089
