    26
        -50.46824842  Gyration_radius:  2.38815652889 Dipole_moment: 4.288
 S          -1.14424343365047    0.42667319471347   -0.42568022616951
O           0.07542231996165    1.00456570911043   -1.00967485450908
O          -2.01698200502453   -0.08496115600294   -1.47373890760107
O          -0.66411448155502   -0.86308969606366    0.33870975491397
O          -1.77956682062191    1.30054798898757    0.52625612421462
O           2.26631842319963   -0.41893957616576   -0.34654378973628
H           1.55512047442471    0.20142335925424   -0.60175323629495
H           2.32057894065200   -0.36491878075509    0.61256354497407
O           0.95409973548726   -2.54995351192039   -1.19867824358944
H           1.64002414489961   -1.91370230450391   -0.87763137031956
H           0.25467978700592   -2.49308321787512   -0.53445670355296
O          -1.65003149403006    0.64296949059339    3.11550720027662
H          -1.78972952384404    0.94839570053323    2.19550946619561
H          -2.43528045726278    0.14899576500931    3.35321123712609
O           0.70084675775003    2.53568442022005    1.08509722092834
H           0.52475967753994    2.15020990950533    0.20620257937126
H          -0.15488377388834    2.84920760198950    1.39146934596892
O           0.81973486755439    0.11901038503610    2.17894355997684
H          -0.05759724276540   -0.54173794740847    1.08637546374213
H           0.94107042314798    1.05281494878366    1.87504730779683
H           0.11250921783737    0.18364540474769    2.84558628488312
N          -0.08606861890365   -0.88021620742158   -2.91402214553263
H           0.36143010958423   -1.67384601261235   -2.33696493320829
H          -1.02017797014971   -0.62088299236515   -2.41076828528599
H           0.48164864188000   -0.03829778710824   -2.78837075623590
H          -0.20956769927712   -1.12051470827550   -3.89219564835974
