    26
        -50.46383711  Gyration_radius:  2.47231324096 Dipole_moment: 4.070
 S           1.27356495871734    0.88534554126436   -0.50358870719735
O           0.56267248487970   -0.40992083621331   -1.04798425275265
O           0.21555882530602    1.72605100648477    0.05325547532912
O           2.24908740010539    0.49094179095169    0.48201092033222
O           1.85115436620467    1.47216884080917   -1.71311228042304
O          -0.77613564379691    0.65577405045121    2.28960327107950
H          -0.40172616212099    1.25477993224642    1.61551430390377
H          -0.01964458186508    0.16777734456688    2.64602821993296
O           1.50141425291749   -0.95921727342876    2.49010392370848
H           2.28767777071510   -1.10092670242231    3.01955141123406
H           1.80487165187766   -0.43278417201867    1.70414455498549
O          -0.27670303697756   -2.91946973347964    1.80473877966902
H           0.44414428729301   -2.29589465256823    2.02168785572314
H          -0.70973212428670   -3.12643583135398    2.63476727486579
O          -1.89773732508403    1.23378609545233   -1.38172854777840
H          -1.21307074581912    1.58895425286805   -0.76312434817805
H          -2.16605829551335    0.39589888681229   -0.98225101381460
O          -1.48877252596107   -0.99963792138053    0.36631037878088
H          -1.20563746129608   -1.85807150562281    0.74365394745568
H          -1.40502317322392   -0.36667556518212    1.12721607174395
H          -0.22457079422310   -0.67053920669437   -0.46715686223987
N          -0.09447534095826    1.05535763536729   -3.26692906968313
H           0.80214002959599    1.28852373840308   -2.64379602048927
H          -0.19532917725211    1.71379515180529   -4.03302673154626
H           0.00927303510097    0.10469248272261   -3.60982397648893
H          -0.92694269433397    1.10572664011726   -2.58606458813146
