    26
        -50.46383700  Gyration_radius:  2.47227591557 Dipole_moment: 4.073
 S           1.31696396142740    0.47172567534634    0.83654973469370
O           0.70257832710305    1.40477319850879    1.74792136818251
O           0.78426998650377    0.76792843153237   -0.61518554772185
O           2.76316644744095    0.64167633179826    0.69322980413379
O           0.96152974273562   -0.91643063502798    1.12462436927491
O           1.03319058492585   -2.14689941668083   -1.16609099046091
H           0.18298948421857   -1.85997590167915   -1.52442574249881
H           0.99712235746408   -1.88182890835677   -0.21421319003767
O          -1.87717522230035    1.58521896175237    1.82998371826069
H          -0.88564430025301    1.54808309717407    1.78061233145394
H          -2.07365145905372    2.24979577016105    2.49215182487358
O          -3.03935731686149    1.48350704802130   -0.64156495192269
H          -2.61318381674026    1.63491805731846    0.22513673676054
H          -3.94188733944371    1.22049609246947   -0.45326291710277
O          -1.67686017462844   -1.17998167831684    1.43841427188372
H          -1.93932128828592   -0.31402022474068    1.78274695491327
H          -0.70623982983028   -1.21426793181737    1.53921219600320
O          -1.35164412921971   -0.55697006292482   -1.10181387907934
H          -1.99709711853903    0.17331544235699   -1.19972383239501
H          -0.08317261187819    0.27820553361200   -0.79710061076900
H          -1.56366564578308   -0.94322473345627   -0.21151010327287
N           3.02735241034300   -0.49791959629254   -1.54405267846583
H           3.92902679420249   -0.93261809427584   -1.71345165770789
H           2.23458799871512   -1.22542412884605   -1.50887743471579
H           2.99860168664249    0.00810965607511   -0.54923628704290
H           2.81752047108173    0.20180801631667   -2.25007348724688
