    26
        -50.46383704  Gyration_radius:  2.47170580844 Dipole_moment: 4.074
 S           0.65125786184581   -1.49480221551617    0.05935547718563
O          -0.65181050295931   -0.89631224069027   -0.59118539269058
O           1.67787865795890   -0.46170754179414   -0.06302091897066
O           0.36255511382180   -1.83451648734725    1.43044179745373
O           0.94012124307144   -2.64850404801134   -0.79307413214178
O          -2.48567024235885    1.55976102065577    1.79604796382372
H          -1.90224832316183    0.92106416386460    2.25130823720958
H          -2.49446791894383    2.34901177709140    2.34034562299378
O           1.12381768418227    0.82084648582679   -2.25739951836827
H           1.52416423878449    0.44089574959792   -1.43705454141652
H           0.40674000750698    1.38152188603218   -1.93309299655942
O          -0.60634491125609   -0.01968327395224    2.99922365085881
H          -0.71936879130343   -0.44208127929901    3.85216269748870
H          -0.26823169948675   -0.73239547285863    2.39522260049172
O           1.14907346990616    1.60399543935370    1.54441045771163
H           1.57169391455416    0.86797185231597    1.06174338762123
H           0.66785377031834    1.18801084571517    2.27441990624442
O          -0.76469330564464    1.64124895832707   -0.26706943598087
H          -0.01041808180030    1.80372858280888    0.35870403700100
H          -0.72053346118692    0.10085540250659   -0.42983084333903
H          -1.55950534340687    1.71231849730727    0.30088744302283
N           0.41699872341635   -1.57851907610452   -3.01907051969217
H           0.67587972882379   -0.55096257789374   -2.82848587487260
H          -0.58730533921382   -1.65939886419770   -3.14903483422594
H           0.92237892594086   -1.95148960779029   -3.81663827366770
H           0.68018459060766   -2.12085796595521   -2.07931599718931
