    26
        -50.46507299  Gyration_radius:  2.55395142059 Dipole_moment: 4.283
 S          -0.82888124805450    0.49630884602490   -0.25338191290892
O          -1.26566394874028    1.02457590900700   -1.54033335014940
O           0.63089298127075    0.32791963053051   -0.25318588669245
O          -1.16449042019654    1.55080822859079    0.83207203255718
O          -1.49268938542073   -0.75278562389293    0.09215472139296
O           0.26279313091461   -0.52611133145423    3.72228755963976
H           0.78675876834445    0.08140893627575    3.15126518066751
H           0.45805640912140   -0.28183427102433    4.62811813898301
O           0.01255899203218   -2.35150709346774   -1.31885164764390
H          -0.64047504553766   -1.87954955038456   -0.74767485651485
H           0.85278449739764   -2.24631097267222   -0.86429621162867
O           2.19600389096934    0.64618247643523   -2.35436484177207
H           2.42521298806746    1.57532221908348   -2.40587920956662
H           1.72202022365516    0.53347740521923   -1.49744679822506
O           1.39024251820130    1.28567294767357    2.09967279904422
H           1.23005655159753    0.88381089320555    1.22045707479946
H           0.79300832381416    2.03800155502054    2.13363568604660
O          -2.10804502447572   -0.02323784219939    2.57743512152478
H          -1.31350126283516   -0.28083508364876    3.09863314379624
H          -1.60320712282157    1.03478806911609    1.59316536165657
H          -2.15579117228040   -0.65951112317737    1.84617252206581
N          -0.04161750360105   -0.50615731418191   -3.19987106774870
H          -0.65697260275808    0.17299279764399   -2.63536730656215
H           0.91508418646061   -0.08539704562016   -3.18258737024457
H          -0.01347528472992   -1.38534307276577   -2.60500068763246
H          -0.39066345038032   -0.67268957933965   -4.13682817488349
