    26
        -50.45889912  Gyration_radius:  2.42384122823 Dipole_moment: 4.983
 S           0.51662846921589    0.20824521323752   -0.60246934686349
O          -0.48042564032601    0.31176618792856    0.49365001184015
O           1.59432255459556   -0.69124750240129   -0.14808241341070
O          -0.13186262002074   -0.36797050481602   -1.80716183671875
O           1.03938896352620    1.55031953455242   -0.90225963998041
O          -2.09903017937289    1.42944909243792   -1.97662849073324
H          -1.34470851853843    0.81395973272538   -2.05421100989544
H          -1.70765552457346    2.30154234864626   -1.91487325539993
O           3.07118110791705    0.27599060603553    1.76783116375626
H           3.94252367433609    0.40871432387778    1.39082539925310
H           2.54707568621596   -0.18974245213334    1.06382770637408
O           0.20818515882432   -2.76308195283836    0.56111376611930
H           0.75287208433818   -1.95421747351615    0.36089891992452
H           0.76517270867138   -3.51374622813798    0.34475485166477
O          -2.94627434010161   -0.31121776038730   -0.03643878629512
H          -3.06261798401127    0.31539104699258   -0.77252062637123
H          -2.08596195604955   -0.02338360275106    0.35885955841375
O          -1.64734215418608   -2.16802699017827   -1.09287695151411
H          -1.04512301895162   -2.53972952691321   -0.35972244312763
H          -2.34421776057349   -1.51380554722708   -0.63123392844807
H          -0.98772947898608   -1.44263757510199   -1.53351578737568
N           1.09760236132764    2.02381128112924    1.55316707793550
H           1.19727379475267    2.08892444095839    0.46257417883900
H           1.94295054039718    1.50246250423733    1.88856920968945
H           0.92195148772513    2.89345739448860    2.04254917515303
H           0.28582058385234    1.35477339915525    1.54337350717134
