    26
        -50.46021129  Gyration_radius:  2.62222966219 Dipole_moment: 7.190
 S           0.22839801736969    0.92485787722160   -0.24002318992475
O          -0.16921291229758    1.37772372510224   -1.57025015703653
O           0.55887632618283   -0.52391686503961   -0.28913612651754
O           1.53571280426861    1.66598531995409    0.08901499413117
O          -0.76222898521578    1.20256505745143    0.77422656309867
O          -2.33326371217277   -1.78843054866420   -2.75200929308794
H          -2.40889674312506   -1.45100886435211   -1.82617303644943
H          -2.57724647818147   -2.71476402186915   -2.71410535987394
O          -2.07116607732195   -1.01661773331269   -0.23563789505757
H          -2.34626097274913   -0.19011329099026    0.17350542068654
H          -1.10157175510409   -0.99495650603380   -0.14711593830005
O          -0.32777275706888    2.15001334656133    3.21859525864419
H          -0.48402107069142    3.09296510005971    3.14560803060854
H          -0.61284028863234    1.76309953919593    2.36454169107879
O           1.63074980727313   -1.38082239608384    1.99405955300914
H           1.17821751963002   -1.11669523889651    1.16596291136842
H           2.39855715947846   -1.89210681328812    1.73351724178218
O           2.08430238880136    1.22082597770499    2.51764745908657
H           1.80366647250198    1.51866384964830    1.07465094282245
H           1.29031388378161    1.58390505318150    2.96778792059032
H           1.97641899423575    0.24751856356968    2.54305468119378
N           0.11661960693989   -0.76514187137030   -2.84859552402953
H          -0.05553696008159    0.26486857496130   -2.52295419591624
H          -0.82012462908245   -1.22502132935774   -2.99120404923427
H           0.72622782053631   -0.83850960561986   -3.65482469492057
H           0.54208253073110   -1.11488689973942   -1.97014319776092
