    26
        -50.45912920  Gyration_radius:  2.50122552453 Dipole_moment: 6.695
 S           1.15973122015069   -0.31962202976687   -0.30206433871915
O          -0.39392959570339   -0.53308695385320   -0.14713585625349
O           1.63693405510257   -1.62143085850907   -0.74985666030157
O           1.36971667792865    0.76107091953246   -1.23082790554248
O           1.64903983171809   -0.01553810536229    1.05352991902682
O          -2.14412370683932    2.34190049773658   -1.90206586700901
H          -1.57755282671709    1.69297633086659   -2.37901894671436
H          -3.02151362423566    2.26531106011462   -2.27877009382229
O          -0.63293906696996    0.37504255984980   -2.93005395082987
H           0.20101791046898    0.58024670653689   -2.46087497502018
H          -0.92045885607015   -0.46546053224703   -2.56565819652872
O          -1.13913216551527   -2.34130724224030    1.71659968957060
H          -1.01411642756981   -1.74959971230652    0.94711266993530
H          -1.66363900916694   -1.84472639871110    2.34786238282619
O           1.01313960141375    2.58195520486422    0.82543406922347
H           1.25635881010346    2.63818114807397   -0.10559251699109
H           1.36944173455227    1.71981798613520    1.10574532660945
O          -1.43614155882436    1.61364537884601    0.55735590023875
H          -1.77995759495772    1.98437534692931   -0.28944189755218
H          -0.85773518704277    0.37287589196379    0.15683528990994
H          -0.62510262883069    2.13988305214537    0.76699086074223
N           1.52444243491887   -2.48706254475555    1.61761085311363
H           2.17941032768953   -3.10293255867727    2.08596506586253
H           1.62283558923686   -2.45693694603849    0.54506037986092
H           0.52477757847817   -2.67879060025931    1.84773961855493
H           1.69949647677462   -1.45078761081444    1.76751920979669
