    26
        -50.46435598  Gyration_radius:  2.55703426101 Dipole_moment: 6.837
 S           1.02771027870608    0.57122708868453   -0.17767606345652
O           1.29120223945812    1.51458543097082   -1.22686885514500
O           0.99508609316047   -0.81712852374525   -0.66046249908292
O           1.90017978751199    0.69067135934765    0.98639257514861
O          -0.41082866325895    0.84515923767603    0.40009725837035
O          -0.42464745421663   -0.88328885722660   -2.87102000919494
H           0.21460294138057   -0.84196554857018   -2.12430163567982
H          -0.66451601295308   -1.80645582458042   -2.96646826034437
O           0.80620771663513   -2.78245910152063    1.01009190218622
H           1.53978007384747   -3.36261698084951    0.79998848970806
H           0.83013812264674   -2.06471669535046    0.32024547531818
O          -0.44670573844262    2.94287484629403   -2.62468033894891
H           0.27167744312937    2.54768265075605   -2.08544158064872
H          -0.18703190708787    2.80076288789590   -3.53702756557918
O          -1.56925205329576    0.26333791892811    2.76573322791166
H          -1.26971116060747    0.68388883747604    1.93719597468712
H          -2.36708912455362   -0.22072864166611    2.54404568405466
O          -1.90444857619128    0.95799781934801   -1.61792172588757
H          -1.51800249520198    0.25473941257974   -2.18402011975170
H          -1.04968271756465    0.90105887482125   -0.41055283404725
H          -1.58285391201196    1.79944111423195   -2.01671583226750
N           0.90542654708980   -0.81084307589383    2.78432317590339
H           0.86164851598706   -1.72725817351330    2.27414717198939
H           1.36866796419357   -0.11918017572340    2.07401472103502
H          -0.06236261322453   -0.46517205941313    2.96617515782638
H           1.44480467486509   -0.87161383096152    3.64070648589686
