    26
        -50.46161920  Gyration_radius:  2.45435932474 Dipole_moment: 8.347
 S          -0.65110258549844    0.21294569062168    0.36766138825063
O           0.53213857449144   -0.58463093247651   -0.25522543765238
O          -1.35301669683638   -0.79547109694507    1.17187761167789
O          -0.13626008229235    1.30957725487758    1.15519168190956
O          -1.47965959765408    0.66496941003466   -0.74716596097575
O          -2.35088883628163   -1.27100001364201   -2.24305820151413
H          -3.29858614424619   -1.14266237812569   -2.31529505977014
H          -2.00814182569306   -0.46429923312425   -1.77494998868789
O           2.54313300316054    1.76203100668762    1.46810376543683
H           2.72954941835101    1.01231921282854    2.04175039895540
H           1.57413248639230    1.83278101622173    1.47326677301978
O           1.08099402334785   -0.50428429000561    2.79829535549065
H           0.43183652776119   -1.10815653178979    3.16145761475822
H           0.56888611184269    0.13571125201115    2.28295809247388
O           0.12935400768540    2.73440146652087   -1.33580138314490
H          -0.55682110213923    2.04738676142601   -1.24899250218914
H           0.12898847299324    3.19455456859360   -0.49227399828161
O           2.21104880763514    1.06946688341134   -1.08856071663592
H           2.57275935806049    1.37144238860254   -0.22326750294328
H           1.26445323831158    0.06146765856877   -0.63807897657883
H           1.58871778883266    1.77657493480372   -1.37194363817518
N          -1.10626399787481   -2.71684891698312   -0.44273493156030
H          -1.36399668817070   -3.66447970060364   -0.18751114516924
H          -1.27262474688304   -1.97193160116572    0.36285680387764
H          -0.11296687004354   -2.63047044240017   -0.66031908618261
H          -1.66566263494394   -2.33139436816948   -1.25824094660572
