    26
        -50.46161921  Gyration_radius:  2.45432904641 Dipole_moment: 8.348
 S          -0.67941682255005   -0.35888869542346    0.11905527057293
O          -0.92083590224757   -0.86652487643870   -1.21209870883219
O          -1.54790488434862    0.76651667805878    0.45490638622982
O          -0.74012641349697   -1.39951607094992    1.15339569192739
O           0.78330230970766    0.16463526448805    0.22207199727515
O           1.01377158779444   -0.89706347437064   -3.14526014700297
H           1.55388864421652   -1.59897295466979   -2.76913291489705
H           0.17483396566933   -0.95307875334024   -2.65837493800191
O          -1.34989233063926    1.87705085065564   -1.98364837239535
H          -1.53428763970522    1.60431471320033   -1.06610970457945
H          -1.66118807929456    1.14841048896994   -2.52721046085406
O          -1.08390003516902    1.76761121533106    2.80590305346984
H          -1.28434615754218    1.50056417213403    1.87004667331718
H          -1.93274690294647    1.80006360093893    3.25112764026999
O           1.00214810719511   -2.76207494876210   -0.78679931749790
H           0.25145722358909   -2.16185723526481   -0.90367032783504
H           0.78458045432446   -3.28580487626232   -0.01457602788990
O           1.28778463312021    1.43314040388902   -1.87209352086619
H           1.04695363963476    0.72137342033134   -0.62698415592500
H           1.36248341309694    0.67517547007886   -2.49715563322330
H           0.39445079163914    1.81361009320166   -2.02943408834860
N           0.64484895527947   -0.20352657857324    2.88861249720346
H           0.95022783930256   -0.66575078124735    3.73870278698229
H           0.03853254002758   -0.84741721353705    2.21829952974441
H           0.01716069920461    0.63408768051064    3.06432456358812
H           1.42822035415722    0.09392240705073    2.30610223754392
