    26
        -50.46161920  Gyration_radius:  2.45433104025 Dipole_moment: 8.347
 S          -0.54950665914525   -0.52234199396444    0.17202730709493
O          -1.95472606535691   -0.11515790107766    0.04582077611877
O          -0.21918495669609   -0.84618574871610    1.55753341700553
O          -0.17850473059553   -1.57462393447391   -0.74607806455950
O           0.23353380059055    0.77721707263720   -0.17747846970474
O          -1.19513323191367   -0.07912434749083   -2.79594864889238
H          -2.11631677315551    0.12553008095084   -2.63007311649299
H          -0.92932054280109   -0.65458525673550   -2.06409553980243
O           1.60175418172297   -1.18379478034862   -2.78566137879660
H           1.03665652472002   -0.63758716584338   -3.34076917806667
H           0.99487499559432   -1.57079659151379   -2.13302742999928
O          -0.78680294807942    1.05735352757605    3.23053672143635
H          -1.30744359969136    0.65095843900955    3.92595505768261
H          -0.47080415738114    0.30657975065043    2.66142437656594
O           2.14017220134263   -1.96234748122989    0.92073450998475
H           1.32195633423896   -1.60801085793324    1.31484644897772
H           1.84700911731779   -2.63850000702597    0.30415425614457
O           2.59444124714837    0.13088924250952   -0.68497354004379
H           1.24028853428984    0.56842551284269   -0.38526389551818
H           2.68003270952305   -0.61447606357826   -0.04879519616631
H           2.45333121263010   -0.29106848634106   -1.56404734961939
N          -1.70997624800055    2.18528410437461    1.04958073274953
H          -0.88769678329090    2.50782835040780    0.53839435765585
H          -2.46714974260733    2.86038275033370    1.02719487590303
H          -1.95878905329978    1.21297598290135    0.57601435789538
H          -1.41269536693096    1.91517580209528    2.03199461237119
