    26
        -50.46041389  Gyration_radius:  2.44150190576 Dipole_moment: 7.920
 S          -0.57337104230304   -0.52354687133277    0.36891815682500
O          -1.48890807899310    0.48191973651939    0.85607390408859
O          -0.09600524159514   -1.44406672545545    1.39862171210677
O          -1.10569455406292   -1.26395467763276   -0.78282349797649
O           0.72252818771892    0.18089178102443   -0.14531587297030
O          -2.19181906928401    0.93485630808125   -1.88554928426792
H          -2.76593582806844    1.21530081844870   -1.16774486274909
H          -1.86652164040354    0.05535882473464   -1.61802338478003
O           0.36934619606906    1.14053625759373    2.77244254713117
H           0.81812458497972    0.34350892956202    3.05812772747749
H          -0.35491897774870    0.82963245396644    2.21214935252136
O          -0.86485178168625    3.14635420551879    0.95871738718402
H          -0.21461553414841    3.08870619949033    1.66659134618874
H          -1.33394834652932    2.29661970875608    0.99715966292815
O           2.66513839291837   -1.46644413825226   -1.04266847122239
H           3.50023543441923   -1.23880105963362   -0.63038343007353
H           2.03657728494931   -0.75682204139701   -0.79838375524089
O           0.07119502753331    2.24820233987982   -1.35820809804272
H          -0.76242652877306    1.91361537763188   -1.76300018627763
H          -0.21164589842041    2.80194420705422   -0.59021308755174
H           0.50063313901244    1.07436563679665   -0.68326608223734
N           0.65263912499991   -3.07416648298326   -0.37968539164639
H          -0.11817462003014   -2.56980946511776   -0.89769084098061
H           1.56982537661724   -2.71576214750258   -0.72704520141715
H           0.46997086490616   -2.61365425143474    0.57728207257294
H           0.57262353794199   -4.08478491436107   -0.39608242159502
