    26
        -50.46594278  Gyration_radius:  2.44200288415 Dipole_moment: 4.198
 S           1.02010447962839    0.23649185963894    1.10959550655822
O          -0.15721318489793    1.02052987304958    0.40361372342384
O           0.83538503721573    0.56913907661665    2.51728301206737
O           0.76230687017322   -1.18305682797324    0.85103838238574
O           2.26402098290576    0.68385334030008    0.54056887533911
O          -1.99571193279551   -1.01470067281589   -1.47662767138153
H          -1.23193666749686   -1.55741206814336   -1.71594482666762
H          -1.75829741341035   -0.11756008949947   -1.73035775411950
O           2.73004846279634    1.75761300351226   -1.82602757343079
H           3.03153118020591    2.65246094427751   -1.66388340892227
H           2.68613591486685    1.32574727990561   -0.94438512338688
O           0.72911436979738   -1.77525258127063   -1.67912486751486
H           1.53474034999547   -2.23310880512473   -1.92223014919039
H           0.79083740922360   -1.61182905692354   -0.70307362244012
O          -1.81210732305944   -1.55278274468360    1.15826456133399
H          -0.82888881778993   -1.60236849127988    1.10862796766431
H          -2.08495461300619   -1.38326936633943    0.23050157252646
O           0.24941611010450    0.83996877023538   -2.12448079008574
H          -0.00741019788532    0.98892684732663   -0.59260547894394
H           1.11244394387332    1.29807908077995   -2.21246160484232
H           0.46990547492453   -0.11172272633419   -2.18234478571305
N          -1.70166349121611    0.57276698146857    2.59646170178047
H          -2.13394174455121    0.53162057907998    3.51353211092815
H          -1.89055854041411   -0.33099015933686    2.00572615060848
H          -2.00609066257478    1.39046041510530    2.07666033276703
H          -0.60721600661537    0.60639554843398    2.66167376925216
