    26
        -50.46594279  Gyration_radius:  2.4420641035 Dipole_moment: 4.198
 S           0.42588718216324    1.34496014675173    0.58017809004891
O           1.69117352873290    2.06387724354608    0.48738178323103
O           0.30517357169073    0.65716184610425   -0.83811991231993
O           0.49752488238668    0.24696178039246    1.54853350697075
O          -0.73054907181747    2.17890838645069    0.77615062816534
O          -3.12734126131420    2.00103074668566   -0.31705483400607
H          -3.24051671769084    2.78715444442583   -0.85291375686563
H          -2.29477880187700    2.13774065413239    0.18679030161714
O           2.07424120531838   -1.57097541667196    0.51510532172279
H           1.38880612275478   -2.09302349891895    0.04436156581246
H           1.55284220033848   -0.95299920473081    1.07891968249767
O          -1.59713313674765   -1.29085059557392    1.51112196146141
H          -2.14832089973691   -1.11769868615658    2.27530290389029
H          -0.80576551323928   -0.70086644312280    1.60500810611290
O          -0.17002232058882   -2.61968003755530   -0.54734388813112
H          -0.68911339020875   -2.51756240187165    0.26219840830242
H          -0.61103351298277   -2.06943648861832   -1.20184291102955
O          -2.05425352124566   -0.34510291371500   -0.97201150545560
H          -0.62412495841278    0.27766184142589   -0.92883080846846
H          -2.10078005545470   -0.76032031960399   -0.08713552002362
H          -2.60917097660703    0.46027080456298   -0.89519549421422
N           3.00997192242636    0.37611865963089   -0.87462821064898
H           2.52252260949590    1.17045785380326   -0.29617392151392
H           2.69988722759172   -0.53870914640927   -0.35644716771252
H           2.61638122137139    0.38863930065243   -1.81076791224637
H           4.01849247366862    0.48628142430969   -0.89258639727432
