    26
        -50.46303528  Gyration_radius:  2.45422859328 Dipole_moment: 6.481
 S           0.92891895502669    0.07385838303402   -0.57330947383387
O           0.58664616635179   -0.66174293977352   -1.79455291072502
O           1.93027558911618   -0.61579774740580    0.22323849714108
O           1.24589053512669    1.46211019739932   -0.82131523058634
O          -0.41759935217463    0.03287259665603    0.24198049296750
O           2.44706881670815    1.57379176466859    1.66908525497633
H           2.22796352743572    2.20257566076754    0.97287636506538
H           2.52281651775474    0.72766395540270    1.19140393556282
O           1.16415400038201   -1.86931724075097    2.42930129032294
H           1.96467360518531   -2.11577092370705    2.89614944013271
H           1.46103448814003   -1.51299570670087    1.56398738309780
O          -2.83543619344619    0.60801353500189   -1.12430088801123
H          -2.18226068546724    1.11928790324311   -1.67067980800913
H          -2.62589742485805    0.84842439756235   -0.21673560198214
O          -0.82634017610521    1.72881010477774   -2.41689276468539
H          -0.51641741524799    1.18113828988668   -3.14186279094743
H          -0.06414655601666    1.76590983375326   -1.79811671462899
O           0.14064420851334    0.64257915867036    2.63432896692568
H          -0.24556394758008    0.33547866496056    1.20528890953023
H           0.40629050933085   -0.26813422920813    2.86779607229072
H           0.98375427946904    1.13088320622555    2.48759234214919
N          -1.68163448743302   -1.71694711611501   -1.37218499381254
H          -0.67388328876430   -1.33768848750538   -1.59803578152687
H          -1.64276734280107   -2.19548277288995   -0.47698430112723
H          -2.26825618175010   -0.81188574311519   -1.27392717456897
H          -2.02992816694403   -2.32763476485974   -2.10413053563392
