    26
        -50.46570656  Gyration_radius:  2.62471552205 Dipole_moment: 5.299
 S           0.13294408631792    0.00463420041003    0.68743249626424
O           1.40134931601235    0.21519710890163    1.34355306448246
O           0.26902460910588   -0.67903422485280   -0.60919698829526
O          -0.86064187739966   -0.68339004812267    1.50606823496289
O          -0.50119236154143    1.39859382859429    0.36289632053914
O           3.03194410180686    2.30986737980105   -1.46142782611513
H           3.05094230580952    1.33389175095366   -1.30934157638010
H           3.94671924215475    2.59536432401866   -1.47474810000407
O          -3.05135303855847    0.30346461171746    0.41166580765793
H          -2.79036342407154    1.20040626824957    0.18481763341618
H          -2.33373102445487   -0.00948551225300    1.00706161578862
O           2.94492412667525   -0.26329777160153   -0.77537456637646
H           2.64995806040715   -0.14500253910111    0.14574945410389
H           2.15397666638159   -0.62409964604087   -1.19614853640963
O          -1.81365054153282   -3.11471094347949    1.07910797745982
H          -1.33705480280678   -2.30213579206252    1.36252195343766
H          -2.47880077536707   -3.27511041433797    1.75095031208170
O           1.57106094484717    2.82340073058317    0.72424017982783
H           0.24160845615382    2.07717318340009    0.45762447516888
H           1.87797430707109    2.06528976275636    1.24457706162888
H           2.07860066317861    2.78867625478304   -0.11976053830386
N          -2.06133302320806   -1.61932559963504   -1.10581374731908
H          -2.10703556259288   -2.41714096354895   -0.42941500060269
H          -1.04752700277544   -1.24970001229597   -1.02314878959453
H          -2.30771609513500   -1.88549804890157   -2.05220286687899
H          -2.66062733647666   -0.84802788793062   -0.71168808053964
