    26
        -50.46240664  Gyration_radius:  2.40671049002 Dipole_moment: 7.416
 S          -0.11612549005847    0.57051861034338   -0.76034958766220
O           1.10036890224762    0.36866148044991   -1.54194572498812
O          -1.24945981702305   -0.14726042376308   -1.29786760460504
O           0.20075869789212    0.03479522001984    0.67271318786132
O          -0.38389571640320    1.99235850644091   -0.53177913520797
O          -2.77378803260321    0.84418929403191    0.74552598892776
H          -2.83192664573005    1.79829982279951    0.67968603316771
H          -2.26269476169791    0.56884639970417   -0.02944938066483
O           3.00300860344874    0.83928629721305    0.15778043836274
H           3.13275711441764   -0.02309743779897    0.56004349111121
H           2.38809677576869    0.67950594821983   -0.60505804586706
O           0.66319308890934   -2.22972627940318   -1.99710071422040
H          -0.19317917183445   -2.22233783500275   -2.43204399915821
H           0.93572563736038   -1.29309278722491   -1.95795611415573
O          -2.51587616473310   -2.10462793560334    0.12676621425849
H          -2.20636196936664   -1.49870897909058   -0.56747321757791
H          -2.95192532320769   -1.53196874329952    0.76504485163392
O           0.08477656288108   -2.46949109809731    0.60195144081291
H           0.17124434737851   -1.00613920615912    0.70124106289822
H          -0.89429420796047   -2.56593792496740    0.56326112560102
H           0.39220015507235   -2.60396667214262   -0.32314198592703
N           1.27519380202614    2.43073598815854    1.32808546834303
H           1.55480360202758    3.39108467775001    1.50140520618043
H           2.08143099251961    1.83014521075661    0.96039156329822
H           0.87745605084003    1.99594295264119    2.15660673384252
H           0.51851297778365    2.35198491383935    0.52366270369549
