    26
        -50.46913936  Gyration_radius:  2.44709501588 Dipole_moment: 5.927
 S          -0.87176342821239    0.25834661382908   -0.86664998237975
O          -0.58080364444474   -1.14766989828487   -0.59794674131871
O           0.07977452633171    1.11941916260412   -0.14294366846014
O          -0.68397939756067    0.51915321906343   -2.36861586433118
O          -2.23021168939453    0.60740863534741   -0.48522028592405
O           0.67971070731606   -2.91064031281779   -2.16400134402586
H           0.07842483870495   -2.36918037403912   -1.61546786322309
H           1.14146978627261   -3.49040839737179   -1.55550090044365
O          -0.62314304641594    2.89775115311387    1.66370264895172
H          -1.10729708661928    3.59385811503464    1.21622328981938
H          -0.24150601561083    2.33657383233268    0.94876372391806
O           0.15336517032245   -1.15337407058446    1.89765100264805
H           1.05548963829284   -0.82283508647954    1.82467317788494
H          -0.11251332706540   -1.32314359965048    0.96283510797437
O           2.36662234016018   -0.06216538801813    0.13523675317760
H           3.03843831666695    0.61688323277408    0.21856389699701
H           1.50331150957393    0.41287361986954    0.06774019190735
O           1.68728082047008   -0.43929721566942   -2.54861579760408
H           2.05995620845282   -0.36628881700276   -1.65011149669414
H           1.45019684494525   -1.38445684212835   -2.64780212673551
H           0.26058130805468    0.20057518548730   -2.55224395775210
N          -1.84399985311533    0.57639171025375    2.08595536195449
H          -2.59746714054592    0.36714964073383    2.73212734184183
H          -2.16051806909535    0.53360189360661    1.06515107177391
H          -1.45974190009232    1.54536708961746    2.20375235743831
H          -1.04167740739015   -0.11589308162996    2.17274408260016
