    26
        -50.46913945  Gyration_radius:  2.44699133963 Dipole_moment: 5.926
 S          -0.88031671709852   -0.73951910439034    0.50732345124879
O           0.51555347631254   -1.00120372692283    0.11519474109489
O          -1.76078985923732   -1.79388482415561   -0.17980758464877
O          -1.01260656009988   -0.86957783446480    1.94894288626261
O          -1.29182531573479    0.58375819899220    0.04546476042362
O          -2.80926345702068    1.20767828632904   -2.06581213384850
H          -2.38744191632003    1.04503630424854   -1.19907803819037
H          -2.46573500872997    2.04879895029744   -2.37260883610274
O           0.85180920357718    2.02805207488374    0.33887975879829
H           1.36557868509063    1.75225269151351   -0.42822832156598
H          -0.03714005329427    1.62929865950524    0.18357032881929
O           2.46163640389872   -1.47581273775686    1.82065780893252
H           2.28897568322323   -2.32365414039738    2.23372236191548
H           1.81126859598814   -1.40111971626530    1.08368648020468
O           1.10163846053814    0.22822211814201   -2.08644887761727
H           0.92305350199161   -0.23878893178039   -1.23460322320760
H           1.81116808263508   -0.25644002356309   -2.51198346792538
O          -1.35631795652155   -1.00377330570390   -2.58534793580310
H          -0.49799912443852   -0.54100168825406   -2.56010517336862
H          -1.64864037284372   -1.59475612941115   -1.16726242966126
H          -2.02709810338300   -0.29062791991477   -2.61414522664592
N           1.02097187805748    0.62363697336826    2.57846127964899
H           1.07313267589638    1.27727486674965    1.74140952349090
H           1.78236467425095   -0.09220554018965    2.48772175820817
H           1.05447511831726    1.12908852602772    3.45735782761077
H           0.11354798492723    0.06926795311431    2.46303829193138
