    26
        -50.46452144  Gyration_radius:  2.52815543336 Dipole_moment: 7.103
 S           0.04122384348434   -0.59068132170241   -0.53598411691702
O          -1.34330898464656   -1.01939478990402   -0.32549268647365
O           0.96436332938516   -1.42166838025040    0.21692523619702
O           0.37779863142099   -0.42577799292608   -1.92883372857910
O           0.15419395926073    0.82813304358246    0.15607647132891
O          -2.32099347431534    0.34016970213456   -2.37507760033652
H          -2.12231621534376   -0.24081135993609   -1.61383740359766
H          -1.68686264595310    0.08041911914958   -3.04987973873593
O           2.62249158984713   -0.86450974606595    2.14577744706702
H           3.11761499191408   -1.65789380551723    2.35495572773709
H           2.14617445882253   -1.05483952983575    1.30042725827205
O          -1.12368498899171   -2.20785434457159    1.94099678156334
H          -1.36057193321572   -1.80665823546272    1.06067784012541
H          -0.44203618466811   -2.84896761824150    1.72108733466796
O           0.96417637790782    1.91112731088728   -3.02759317446740
H           1.89936591113942    2.07216737876493   -2.89731750792188
H           0.80079905038882    0.99310272658946   -2.71963009037516
O          -1.05700926090513    2.41760022693008   -1.34011804445861
H          -1.71190868728714    1.79716117670446   -1.74737452183321
H          -0.36500876643636    1.52506151112215   -0.43018551162060
H          -0.36564588633147    2.52764159570455   -2.02548995321853
N           0.15394953246367   -0.05168183833215    2.66153981658906
H           1.16394010250756   -0.31831441457263    2.75266095526963
H          -0.17982010649540    0.50771372564215    3.43935949247061
H           0.08936014152123    0.46280519184170    1.75172597645167
H          -0.41628475547266   -0.95404932173717    2.51460376079493
