    26
        -50.46972960  Gyration_radius:  2.43081846808 Dipole_moment: 5.138
 S           1.27730440306609    0.80736495394415    0.42894434472302
O          -0.25295532330000    0.52811362056343    0.74747895997151
O           2.05700399716523   -0.09174236732280    1.24592351218429
O           1.41219218424585    0.48814951286922   -1.00695440681665
O           1.44548816177583    2.21171952558317    0.69562248867890
O           1.77779929265206   -2.11379190732968   -0.77059645214861
H           2.37097491968311   -2.16801490113733   -0.01565821356298
H           1.75890825224937   -1.16158778852539   -0.99963250894314
O           0.77810585663984   -1.93255341543602    2.65751622788106
H           1.32350668068462   -1.26069811986402    2.19140378235153
H           0.79280162011798   -1.68751403781882    3.58290121392197
O          -2.48512155793238   -0.70070529737574   -1.10649249952389
H          -1.87302182232876   -1.33917662637315   -0.69870272092662
H          -3.10448871959624   -0.45702471473980   -0.41596982190174
O          -0.79615616192921    3.23770148240823   -0.10006540867333
H          -1.35310974975045    3.09231026865464    0.66746837068879
H           0.11432722557652    2.97428766211283    0.19904038796180
O          -0.59157560535122   -2.03134493066091    0.36016304807925
H          -0.34787414962233   -2.27424634683772    1.27117003278346
H          -0.39858043491832   -0.45008898924240    0.63276800539358
H           0.23010992836171   -2.21938652775682   -0.16471371927049
N          -0.84750500473313    1.31284622097296   -1.90982254433656
H          -0.91066443966383    1.58216809889679   -2.88580927194517
H          -0.97487056101574    2.14378806987551   -1.26290412738508
H          -1.53543943954626    0.56042158505512   -1.67448162493123
H           0.13284046751331    0.94900498961742   -1.66859704438372
