    26
        -50.46564932  Gyration_radius:  2.4485013021 Dipole_moment: 6.109
 S           0.39192349596742    0.64778410170499    0.85436241656860
O           0.53218767655698    1.07257969900252    2.24736481970941
O          -0.88036112634040    1.09059675909685    0.28488466942421
O           1.51590501710889    1.01582183080952    0.02015886221457
O           0.31994008352841   -0.90460023758028    0.95286840339950
O           2.59426422675070   -0.66761514718193   -1.84141373664704
H           2.50320673691578   -0.05621392996214   -2.57939880580502
H           2.43902745033867   -0.12433268259660   -1.04941531819257
O          -1.01726731440648    0.38690773014692   -2.29356694209136
H          -1.12684488667008    0.74846739427972   -1.39368733431582
H          -0.28985369299499    0.90820098613047   -2.67307448792479
O           1.26843310845943    1.90710897332689   -2.49312861680658
H           1.22989310170955    2.86327613534500   -2.53270006742125
H           1.37167923958937    1.67625588902432   -1.54609080261344
O          -2.58160734720231   -0.62326722814405    1.20838702673823
H          -2.49741731816972   -1.35323745841919    0.58956129390117
H          -2.06031466625770    0.12042074895872    0.80771802715179
O           0.19960176295943   -1.76482016203178   -1.39181256609372
H           1.12590776568687   -1.59346846105977   -1.67535459825991
H           0.27367482737523   -1.30786297429727   -0.00898558770449
H          -0.34162361505990   -1.07026460562226   -1.85165898910324
N          -1.00917115106041   -0.61247439192046    3.31101812631091
H          -0.31077522672421    0.17125041801433    2.92646514904344
H          -1.73465860316230   -0.71401718155083    2.53230276045933
H          -0.48253803045068   -1.47641186397976    3.40292112666669
H          -1.43321148442537   -0.34008435149827    4.19227518138123
