    26
        -50.46949725  Gyration_radius:  2.5628652082 Dipole_moment: 5.882
 S          -0.55246892297663    0.06129363395387   -0.06741529260959
O           0.06268015142235   -0.16231551189324    1.34361485749575
O          -0.95258582671439   -1.27146795672339   -0.50574426331175
O          -1.63799448745691    1.00250306286873    0.03063888385802
O           0.54301835905356    0.56600285795679   -0.91831383792337
O          -2.34608318366117    2.19688182632371    2.29818593157949
H          -2.20280138935754    1.78933693172566    1.41819428874832
H          -2.93786194207218    1.60987472557105    2.77035116064745
O          -0.35391891155398   -2.38830061306509   -2.82884185755290
H          -0.70826387741507   -3.27917316632771   -2.80588124584081
H          -0.74484989553756   -1.92466189783380   -2.05446595000172
O           0.25904560076253    3.11617074088303   -0.18107575649845
H           0.45036629082842    2.24605637673533   -0.57712726653116
H          -0.69261329783620    3.22185177917312   -0.26910978007639
O           0.99874710112051   -2.66229263119477    0.59364183819137
H           0.14732616022858   -2.28427046805865    0.27668906058543
H           1.16459999933462   -2.20122991334964    1.42053473136753
O           0.34795731890541    2.15033484652866    2.30355466447228
H           0.47840271740407    2.67069819937892    1.47726958105572
H          -0.58078939205331    2.32193426283858    2.55822975742653
H           0.22423912763114    0.76060451422091    1.77224179612152
N           1.85265603961262   -1.51725981207604   -1.62828314939515
H           1.40215455895009   -0.56573876903674   -1.38463689097331
H           2.79547870103900   -1.42255203365747   -1.98830276117375
H           1.79073534959209   -2.07966492928859   -0.74007555105405
H           1.19282367072784   -1.95461605561991   -2.31387294863306
