    26
        -50.46949734  Gyration_radius:  2.56276779847 Dipole_moment: 5.885
 S           0.25371912734683    0.22173022875539   -0.44695210341665
O          -0.82023078741149    0.22095955858203   -1.43452926281543
O           1.50188391633414    0.75243834061305   -0.93082108910651
O          -0.27731505999827    1.12461720359551    0.70300356122956
O           0.41219918245739   -1.12795818373011    0.12942815182928
O          -2.88087668737629    0.30813115296369    0.20792973875080
H          -2.57105276840203    0.86568727211603    0.92697843082546
H          -2.20831055615045    0.43568717534049   -0.49897103676005
O           2.83795837529148   -0.66665618821928    1.14499133884754
H           3.27300323253093   -0.26086526735832    0.38956715342150
H           1.98895241302087   -0.99529899125017    0.79617726910236
O           2.68717378596374    2.89490294906315    0.10559708006387
H           2.32543883824981    2.12486060267838   -0.38141455156521
H           2.30262159821852    3.67199202589390   -0.30180181016158
O          -1.89060809651131   -1.92041115352398   -2.56156160023385
H          -2.60211274104095   -1.60953805860288   -3.12443315864795
H          -1.38227013141029   -1.11844846454285   -2.30464935929158
O           1.71273139031038    1.50914315617240    2.20046625546392
H           0.49691285201424    1.29210382180531    1.36205809337029
H           2.21776776268933    0.67842991882283    2.04118459125658
H           2.17471170588733    2.18457897106234    1.66436228477374
N          -1.93368070859758   -2.15453214982879    0.08646478968549
H          -2.14359397813148   -2.95936982257923    0.66577100035447
H          -2.06103514531793   -2.33967099090800   -0.93633951375281
H          -2.50696251755006   -1.30211794837284    0.31837762327342
H          -0.90702501241358   -1.83039517854500    0.17911611350525
