    26
        -50.45932477  Gyration_radius:  2.43952181031 Dipole_moment: 7.816
 S          -0.39525058238379    0.54529539402976    0.61342827841453
O           0.69017698918524   -0.09129209773805   -0.14378208915386
O          -0.98908066181658    1.67038646323957   -0.22511264742072
O          -1.43270624554744   -0.44957349604429    0.91719486232788
O           0.11918123628480    1.13889588369154    1.84410852544937
O          -2.25313228314112   -1.41695737105855   -1.40940462372774
H          -1.92962104486353   -1.13414465913574   -0.52709447481614
H          -3.20204089585264   -1.52547192382285   -1.32342783609949
O           1.80702407648271    2.34788198053414   -0.74611350786800
H           1.51438664831323    1.50803348275248   -0.36429525677877
H           1.13610247582107    2.98669189783653   -0.49675384638295
O           1.84713372342195   -1.91240125261043    1.35685561985030
H           1.43385490737827   -1.31125768628765    0.69046598086689
H           2.77932570746105   -1.68656450078785    1.36742430917145
O           1.19251411731211    0.47342566650966   -2.79344754104819
H           1.61058105337949    1.30765341630387   -2.53736449517898
H           1.13869484815276   -0.02528763430065   -1.96325214889603
O          -1.41160584027687    0.85376779904597   -2.53377533814062
H          -0.47920206451908    0.72729730370925   -2.84468986653731
H          -1.75325335644981   -0.04563437391891   -2.33052345287476
H          -1.21103481427797    1.36740487147784   -1.22678143258515
N          -0.04143944061440   -1.09945358294567    2.99673533872731
H           0.77914515393360   -1.60443033809814    2.56915563949823
H          -0.23640096106604   -1.35018758621160    3.95986069330866
H           0.13497328989303   -0.05111227437998    2.80786726489038
H          -0.84832605621329   -1.22296538178373    2.34272204499865
