    26
        -50.46831191  Gyration_radius:  2.50208496305 Dipole_moment: 6.206
 S           0.62837104609587   -0.42722848703564   -0.11897858966113
O           0.55248820848328   -1.83466064851251   -0.41889064062424
O          -0.40717038467731    0.34546660393302   -0.83703943929539
O           0.35836220539405   -0.20434727092484    1.39450906670491
O           1.94276746439166    0.15672264315657   -0.35803469113620
O           0.01190061129152   -3.69160250350910    1.40625517626763
H           0.26694773702010   -3.10609927848752    0.66263810906478
H           0.82272884273755   -3.89778883928174    1.87301146799870
O          -2.25363006772295   -1.58253152187971   -0.65794997102133
H          -1.68181327422511   -0.81468910800233   -0.84032079581504
H          -1.74064893806284   -2.34489724739895   -0.94163544188164
O           0.40424397135136    2.01677977888512   -2.75019244707005
H          -0.02673108704298    1.37165820519868   -2.14845282892445
H           0.84562236300022    1.49639456981276   -3.42334557890135
O          -0.67364749176493    2.34793833401269    0.89262322664835
H          -0.81502992359739    1.63981222204816    0.22975430032218
H          -0.56869004492123    1.88319548294030    1.72808357259290
O          -1.63994890119930   -1.63626534275837    1.93453459740228
H          -0.46267463023942   -0.76886229557466    1.66473945703843
H          -2.10635033194349   -1.62118317340354    1.06671631410654
H          -1.20375828633529   -2.51181599420781    1.96607230349154
N           1.57611356189401    2.67917010256307   -0.45549116375212
H           1.23222272070433    2.73847479777187   -1.44052307995698
H           2.32881257562435    3.32838277391450   -0.25755757222692
H           0.74340203754114    2.79917198534109    0.17914404712373
H           1.86611001622168    1.63880419137580   -0.34966939850603
