    26
        -50.46404620  Gyration_radius:  2.45988213218 Dipole_moment: 6.112
 S           1.11874032024834   -0.59042248661974   -0.09150724497655
O           0.94185288992459   -0.54536403757433   -1.52728962094410
O           1.24657265848726    0.77457546255554    0.47110409665115
O          -0.19642180697966   -1.15927030205470    0.54303073018523
O           2.16433586899775   -1.46433829389395    0.37437227529445
O          -2.08641628818236    0.28404220542060   -0.27528382187300
H          -2.15582476573949   -0.05882846544866   -1.18565402508874
H          -0.99625808638263   -0.59264257056680    0.22059857085023
O          -1.44495428400995   -0.87312346478621   -2.64640620400491
H          -1.59891058993789   -1.78881466014170   -2.88060438160688
H          -0.53298750279226   -0.83049545903685   -2.28315954577939
O           1.33348048006000   -2.05388958634905    2.73826433557091
H           1.78518299930636   -1.89450770406365    1.86328772892776
H           0.66236941071138   -2.71322554986987    2.54546774944028
O           0.15181436216529    1.62130682764056   -3.04218903278496
H          -0.57993334541412    1.15018744705070   -3.45184722370014
H           0.67571713745467    0.93523912238012   -2.59641201556212
O          -0.60789363664453    2.41993876353818   -0.57181332905466
H          -1.66093731661919    1.18231680863715   -0.36594454489380
H           0.17417646909578    2.00230453351730   -0.16903486752471
H          -0.41236331473417    2.40600487745625   -1.53034814756898
N           0.38603630156394    0.37610402295216    2.80951267784510
H           0.79122453339919    0.65517885817764    1.81831886840619
H          -0.62879853118018    0.42025512576355    2.76910196868108
H           0.72032830226753   -0.64145584580559    2.92343316787192
H           0.74986774493860    0.97892437112736    3.54100183563625
