    26
        -50.46404620  Gyration_radius:  2.45987082759 Dipole_moment: 6.111
 S           0.57642226754240    1.01811910997517   -0.48960862753100
O           0.86040739110814    0.20607618188255   -1.65353646266605
O          -0.94698124687433    0.87013294167878   -0.15316799427580
O           1.27722602379259    0.49514137900480    0.70682338497349
O           0.78385341875606    2.43317235166182   -0.65881329294648
O          -1.40437865575249   -1.58997255625634    0.09887003370089
H          -1.39652927446748   -1.84296422070134   -0.84297569965063
H          -1.17164390690580   -0.13171086343762   -0.05032640591673
O          -0.88458923128908   -1.57682164804177   -2.56615742189887
H          -0.24578066858586   -0.87344132908104   -2.31590965687884
H          -1.44768826702338   -1.20058099203328   -3.24320887611238
O           1.86058331795395   -2.36525633405065   -1.68820923216124
H           1.13871538838059   -2.70802791115142   -2.22359805440983
H           1.76821121812513   -1.39897683332586   -1.72888966189131
O          -0.85004139963638    3.40828798247537    1.07479821014040
H          -1.68874530884412    3.32406344945239    0.61465218812243
H          -0.16468026601293    3.17312612051059    0.38923512576044
O           1.02184141209256   -2.17690599696936    0.87663723333622
H           1.29280447762499   -1.24271677294455    0.92292559962093
H          -0.54756787416048   -1.94132401828446    0.47112338606729
H           1.43335730475010   -2.49863277955897    0.04937114364626
N          -0.26702516220761    1.31887411245626    2.52455790905798
H           0.14988888071336    1.50357548370699    3.43168591985519
H          -1.02794006950945    0.64902712782560    2.60041031354151
H          -0.60004370180139    2.22308784545867    2.04326631324327
H           0.48032393224497    0.92464817974450    1.81004463526667
