    26
        -50.46506319  Gyration_radius:  2.61371267437 Dipole_moment: 4.706
 S           0.13213971717546    1.04522046454173   -0.15398117814938
O           0.84676818948027    0.42282660143548   -1.26705112082512
O           0.70000962015764    0.60338235570242    1.12062706735931
O           0.34442768101322    2.57176588191283   -0.27554324699241
O          -1.29745764049964    0.76734323369985   -0.21926685311957
O           1.28413456681794   -1.93868237606152    1.52636920098141
H           2.20840932016084   -1.94809971849197    1.78036094799055
H           1.02927189324033   -0.98746490722620    1.47570502271841
O           1.95619065850097   -1.39929829362411   -3.09723783503080
H           2.48087247681049   -1.10531806373597   -3.84281285564832
H           1.70739893617427   -0.59999653973890   -2.61017086138100
O          -2.27409646298396   -1.61248848658223   -0.78694255385644
H          -2.89654148925807   -1.46782398332757   -1.50138690514931
H          -1.99022794928376   -0.71454911626541   -0.49301751189793
O          -0.41982332614636    1.94914311800288    3.10611417400518
H          -0.00293205063855    1.36801532566818    2.43303573537990
H           0.29844545079632    2.41067609769848    3.54195430274905
O          -1.76759558066745    3.06955316248761    1.07806419807244
H          -2.07917087821660    2.24530587140484    0.67290364777349
H          -1.44807814536419    2.80894820100042    1.96783878876677
H          -0.43899904398229    2.95393945087124    0.22391958441310
N           0.32407584665352   -2.13026626943358   -0.94371478817024
H           0.53635155775815   -1.10310332718223   -1.10537005363329
H           0.71209200952675   -2.34488908468423    0.00359147059023
H          -0.71899482776648   -2.20805590415182   -0.94275337925897
H           0.77332948053840   -2.65608368392494   -1.69123496768598
