    26
        -50.46972946  Gyration_radius:  2.43091919415 Dipole_moment: 5.130
 S           1.29327260787174   -0.77681250080468    0.43785851637234
O           0.49191811292023   -0.52245414153009    1.65240072699521
O           2.65214077718626   -0.32225847532519    0.57373299346622
O           1.12076746884731   -2.12950638374063   -0.03567882765008
O           0.66348936955371    0.18954775453178   -0.65324916292937
O          -1.88473055189143    2.03474524915621   -0.45023627683919
H          -2.05561900338735    1.08975535445241   -0.61295387743022
H          -1.61407466504120    2.39919334061874   -1.29500634833659
O          -0.31691935865704   -2.51869368622159   -2.22635206866117
H           0.26489035279462   -2.75481105901108   -2.94914925015083
H           0.25429698555342   -2.45586613075441   -1.42892334749003
O          -1.50241416676202   -2.16711681152477    1.12567782738588
H          -0.79079246849465   -1.60541219016855    1.49656001503539
H          -1.04393336440808   -2.93660349767106    0.77576740925196
O           2.44461599800205    2.24739880925352    0.31754899702390
H           2.65017461390393    1.28738331839642    0.47177185251047
H           2.43723706374120    2.34142546103196   -0.63719387337861
O          -1.78529841982713   -0.64777103598279   -0.99820199188919
H          -1.54557605848133   -1.28771932866511   -1.69179745631157
H          -1.87576981476956   -1.20458584617293   -0.18097805260883
H          -0.26438577658886   -0.12950486907976   -0.82156900399571
N           0.06540798132747    2.00234898042579    1.44119143530127
H           0.18528834317602    0.95814508050036    1.65827720931751
H          -0.11685077059400    2.53538053461071    2.28485126729182
H           0.98799666966831    2.27525237285598    0.99454562606078
H          -0.71513190563936    2.09853970082186    0.75110565165402
