    26
        -50.46452127  Gyration_radius:  2.52794867946 Dipole_moment: 7.090
 S           0.31685244771351   -0.52761089069692   -0.50887933969819
O           0.74109756024001   -0.23081788133047   -1.85507856233015
O          -0.31303736934614    0.79160759107815    0.09768300978079
O          -0.75425934615744   -1.50374117129957   -0.41153268551080
O           1.42708572414269   -0.87535477177399    0.38077630584117
O           0.20247057545752   -2.33205540502409    2.10603646847301
H           0.81450883656896   -1.81631953726687    1.51336872295870
H          -0.18299784152953   -2.98699560547098    1.51734930994766
O          -3.22765375958137   -1.28636479254292    0.37327191432430
H          -3.66018563602482   -2.13115998366182    0.24031115181623
H          -2.36141625983217   -1.34555304978386   -0.09995750542440
O           3.15681866908488    0.77777061149732   -0.75105227848967
H           3.00956916408178    0.54948983417367   -1.67362509829579
H           2.66170627762656    0.10094763077438   -0.24775888024262
O           0.53211353469390    2.16518219189143   -2.96358304937594
H           0.62230767295308    1.23295120646456   -2.66838500260025
H          -0.34520136824395    2.24059449154063   -3.34080151185485
O           1.29454854473909    2.62612185225378   -0.43425629069856
H           1.05567608992065    2.76113319479534   -1.37469263428467
H           0.34515115404286    1.58710938951799   -0.08305183831126
H           2.13597046795885    2.10588445075592   -0.46469550430304
N          -1.50899556091918   -0.36535031132654    2.16704624750472
H          -0.84290307359326   -1.20322613132747    2.29129114608863
H          -1.04223445296855    0.25232119667398    1.46182333328808
H          -2.37823300068151   -0.71075090378350    1.69319975742452
H          -1.69875904034892    0.12418678383039    3.03519284387533
