    26
        -50.47045953  Gyration_radius:  2.47405535125 Dipole_moment: 3.916
 S          -0.07622805820530   -0.13421892460421   -1.00522133702530
O           0.58074784084634    0.31515556329350   -2.33398514801490
O           0.34513685799265   -1.52104061237504   -0.79282182969897
O           0.44336998766702    0.71770906285031    0.06180384969460
O          -1.51981441684161   -0.01497117836816   -1.12453662375126
O          -2.51748037350274   -0.62230714829693    1.22833397261353
H          -3.44033933012365   -0.83893719365892    1.08528643140695
H          -2.17396711741096   -0.31319964554885    0.35654506893003
O           2.87443941513920   -1.40157415442468    0.08532030274326
H           1.99655483992763   -1.50581106618327   -0.33309619958098
H           3.38808017333079   -0.86103683153358   -0.51650998670803
O           1.62074874849128   -0.30859547858644    2.22471500452349
H           1.20736833242496    0.30505757140662    1.58491333928917
H           2.32354708738937   -0.73245547630380    1.69425316649743
O          -0.28028263041960    3.21590195125161   -0.43601400335766
H          -0.04371542818722    2.30803456552866   -0.14800986264460
H           0.50699272547798    3.74926916413587   -0.31534609590876
O          -1.17281437411960    2.13594759431186   -2.72133140711261
H          -0.00494378221986    1.06816462228408   -2.64972244479217
H          -1.77847699830106    1.50521269380099   -2.30483852461988
H          -0.92820617690702    2.75690212461783   -2.00320957317674
N          -0.28194370810263   -1.99719554710164    1.70106696131788
H          -1.21691882068212   -1.53565828830585    1.76031673129000
H          -0.28206633695422   -2.92747237678416    2.10447818647438
H          -0.04484460635048   -2.00587598276882    0.67050615259292
H           0.47505612964116   -1.35700497863658    2.12710386901719
