    26
        -50.46361855  Gyration_radius:  2.4141750681 Dipole_moment: 7.894
 S           1.09160725275308    0.19870811188270   -0.37695026347959
O           0.51041204729809   -0.45075475275387    0.80845196924388
O           0.05109217587743    0.51868853484828   -1.34713710523445
O           1.79772493697468    1.48110563958061    0.06986350005293
O           2.10516333433161   -0.65652978577077   -0.99338034676849
O           1.75755250001114    0.65136345167655    2.96502822020244
H           1.31938783867753    0.10729717169618    2.28625254895026
H           2.67571438727657    0.71943026910590    2.69720119322462
O          -2.50056965126006    0.16918989364772   -1.01607352295624
H          -3.00097043283750    0.74530863360938   -1.59492410206230
H          -1.54510700318548    0.38169349986460   -1.16662823865520
O          -1.12312314206426   -2.15507151067723   -0.41079422897315
H          -1.87570204075321   -1.56036441918756   -0.56082968547519
H          -0.52929921877783   -1.65775251873229    0.19321063952434
O          -1.69824492380228    0.93318381607259    1.55252722414585
H          -2.25932550207698    0.79041630701143    0.77749634374931
H          -0.96237360453756    0.30605149247703    1.44718870340869
O           0.34082611869387    2.64705110060101    1.77223143547137
H          -0.54246164779684    2.21904255097768    1.71604120387009
H           0.78579467037252    2.19370090876719    2.51341094420208
H           1.18869890127925    2.03047633427391    0.69897717560507
N           0.48079705038726   -1.95220802723653   -2.44638430032042
H           1.29071461411444   -1.45481555544514   -1.89327869169741
H           0.79086050520654   -2.78994353840568   -2.92858607010532
H          -0.25157686822233   -2.15464179511216   -1.67417006050429
H           0.10240769206025   -1.26062579277041   -3.08874449541915
