    26
        -50.46361860  Gyration_radius:  2.41422917883 Dipole_moment: 7.894
 S           0.94522343500539    0.02073636213452   -0.69189064601837
O           1.49490139853731    1.37749250900688   -1.13887279138574
O          -0.30502792828590   -0.26063036561161   -1.38758471811132
O           1.94901346670542   -0.98435413308205   -1.03971466270998
O           0.72888402432147    0.06171076382701    0.76288266425284
O          -2.64324990420203   -0.49863971634960   -0.28366082757135
H          -1.78694251859108   -0.35395533252216   -0.75961079412169
H          -3.33900469938127   -0.33336746412678   -0.92083078686791
O          -1.49371504783288    1.53096251526936    1.26068507825962
H          -2.16363673112631    0.97929095845781    0.83318461293669
H          -0.69678555108280    0.97450695688953    1.29519054754252
O          -0.79582387039579   -2.09943191684066    1.01670974563946
H          -1.65382319749603   -1.70519167485135    0.79085168269158
H          -0.18903742767340   -1.33377175925533    1.11842816269602
O           2.16867586211244    2.18247339390925    1.68488690241575
H           2.99051441215729    2.14132447505316    1.19258807507359
H           1.70516841158959    1.34508863994639    1.50422221097007
O           0.22504609686982    3.19552868961176    0.06993569595746
H           0.87801319216756    3.21627205531421    0.79527415628952
H           0.93713071229456    2.14729200320990   -0.73263300079209
H          -0.56567518800737    2.76265142124077    0.46232554172558
N           0.31744163664420   -2.91959704901922   -1.18453927811556
H          -0.20300273466445   -2.72075751826075   -0.25543539745625
H           0.66575957392694   -3.87093947968475   -1.24845354210183
H          -0.29275502507150   -2.68401152373174   -1.96314792477384
H           1.12270759147894   -2.17068280053508   -1.18079068642382
