    26
        -50.45803609  Gyration_radius:  2.45058466475 Dipole_moment: 4.134
 S          -0.45926312672378    0.02177459235070    0.67200471504798
O          -0.56746355798526   -1.29539654026113    1.44590228772303
O           0.36449350556251   -0.21767295788651   -0.51292089830150
O          -1.83115218669807    0.38953171630715    0.28711328260328
O           0.14117694429814    1.05419972916965    1.50787436392756
O          -0.83941052766710   -0.08406754172173   -2.80679754924212
H          -1.55484480574012   -0.72689519867481   -2.63091341234965
H          -0.22029648812969   -0.23097641460014   -2.04638515267676
O           2.52499104406787    0.43829260732449    2.52148534126981
H           1.66599541709841    0.73245080838622    2.15142802476368
H           2.54130606145868    0.75932533810503    3.42459351659452
O           0.58456580333870    2.60806556469581   -0.57083016770641
H           1.26888530805716    2.08050401029027   -0.99334967841527
H           0.44003602233884    2.17489321169035    0.30283098955402
O          -2.50094097131724   -1.61625063346039   -1.34454233849706
H          -2.35144416009852   -2.45375066619082   -0.90424494710585
H          -2.39328846806096   -0.92946381418732   -0.65776522352859
O          -1.63294800866806    1.95941123976332   -1.64792999623863
H          -1.33776418468342    1.15428760659071   -2.31773976214507
H          -1.90174166778922    1.40897724563834   -0.81665194818995
H          -0.75869599417996    2.39270393675999   -1.32827483464276
N           1.84913336862268   -1.98830862063249    1.26082476539467
H           1.98668301763319   -1.78510200168113    0.27851615157881
H           2.22950910906890   -2.89805513964330    1.48376545175159
H           2.32829584097371   -1.26650998274718    1.80274258673590
H           0.42418271521730   -1.68196807538319    1.43926444209846
