    26
        -50.46487305  Gyration_radius:  2.45939094688 Dipole_moment: 5.083
 S           0.52566663060002   -1.12650209241921   -0.14201050676936
O          -0.43773341758887   -1.35981868865728   -1.19679887512828
O          -0.16681596481342   -0.82100882599840    1.13666166970708
O           1.51544059428256   -2.15891442132899    0.02850769471787
O           1.32910087336711    0.16857653482676   -0.47574220684203
O          -3.06280796016953   -0.87358870085684   -1.04624283124219
H          -3.56004418942703   -1.66788348226477   -0.84865996600472
H          -2.12035081542645   -1.14279494092138   -1.08171578942035
O           3.47394455856356   -0.83232510519808    1.04091405313373
H           2.80171094941006   -1.47267764920184    0.67587042440381
H           3.82300087492163   -0.38466519882777    0.26605154454551
O          -2.15002214235444    0.94442978935141    0.80208257341394
H          -1.51865816094011    0.25261965895756    1.07540663987102
H          -2.74850190525492    0.48721962665611    0.18771195392772
O          -1.29047188855155    0.60393534035930   -2.89485071233024
H          -0.84524525770689   -0.17151834628278   -2.51112915703218
H          -2.22828420376363    0.44659976310778   -2.74425265341662
O          -0.35218047798247    1.99753532108452   -0.82227448494763
H          -1.07820436306375    1.77315206617481   -0.18522303060458
H           0.66389629283477    0.94435692215971   -0.64773526380727
H          -0.69669952554063    1.72712834079290   -1.70339935363673
N           1.63306877041951    0.56304126932972    2.24948691497475
H           0.79186036700771   -0.03906707737416    1.86531536621856
H           2.49366058446438    0.07213466977327    1.82164017840051
H           1.54483417689977    1.50856858340209    1.88588831594868
H           1.65983556978415    0.56146664336890    3.26449749193472
