    26
        -50.46793862  Gyration_radius:  2.51174195644 Dipole_moment: 5.771
 S           0.51583381304688   -0.61587339279027   -0.13720952108441
O           0.12376495712760   -1.77723618182761   -0.89572339083385
O           1.79884939131032   -0.75611412141044    0.54135303808089
O           0.71000160729891    0.58588186910207   -1.12158021915262
O          -0.52207200755546   -0.19018494221501    0.81296028248756
O          -2.54493626522839   -0.83265251350237   -0.78093066791151
H          -2.31163639202516   -1.73124054206715   -1.03081238430332
H          -1.89511785497659   -0.58869287203147   -0.09294346338525
O           0.28720564556015    2.55059607299441    0.68006790643351
H           0.49885152679297    1.99344435189656   -0.09362153859862
H          -0.60550050444993    2.29355480719098    0.93075736764506
O          -0.26278190344118   -0.15866811276900    3.43790720856303
H          -0.50547143027964   -0.20284947767356    2.48441657995329
H          -0.29316597730820   -1.06043501484065    3.76050897355667
O          -0.19902341066309   -1.84687536946841   -3.53063206095033
H          -0.06195561842546   -1.96067272781815   -2.56638455481476
H           0.66413511762023   -1.94274204559285   -3.93519818260270
O          -1.24098203929450    0.47837876063787   -2.69131684830444
H          -1.92189723537269    0.10929037461625   -2.08053262470826
H          -0.08015915258028    0.58534304721324   -1.80069117026398
H          -0.97155959249822   -0.27857573625686   -3.25242486762778
N           1.79459586041438    1.09070117037121    2.30123245595688
H           1.14011678366235    0.69987864655168    3.01450839759549
H           1.92577798979118    0.29741165420146    1.57163295831421
H           1.28575666431965    1.85062770965021    1.77572176759953
H           2.67137002713108    1.40770460584438    2.69893456834586
