    26
        -50.46296651  Gyration_radius:  2.50183775691 Dipole_moment: 5.086
 S           0.70849613978198    0.04438100490836   -0.20102509755271
O           0.15998183150529   -0.27664429419239    1.22363314869943
O           1.38735722404487   -1.19123559501032   -0.59617108670422
O          -0.47021127071424    0.26794135291071   -1.04882878137233
O           1.57045236736836    1.19667657582131   -0.14409526480070
O          -0.70918839265182    2.83279135584977   -0.34279578579914
H          -0.78375184116404    1.93840596850368   -0.72344915327404
H           0.20824255605771    3.07748738672206   -0.49435695275129
O          -0.19593722276721   -1.71842162422191   -2.92057192337427
H          -0.22246799868049   -0.88672634118454   -2.41901625338530
H           0.71659028014586   -2.00747860795574   -2.86174811107033
O          -2.26208426906470   -1.71047825708682   -1.07208753855425
H          -2.05362752675659   -1.97678979867066   -1.97904356016267
H          -1.83629281698225   -0.83005687558052   -0.99120815390554
O           2.08445729158570    2.49945587757022    2.11990485605789
H           2.02061567120940    1.97660393299298    1.29414125620273
H           2.64171815608035    3.25285990875233    1.91958372301814
O          -0.56395298181845    1.94285884490507    2.17496089348051
H           0.31699772162142    2.27608499221497    2.43026123318577
H          -0.78902656571023    2.41006867303007    1.33776416966158
H          -0.17238995822138    0.59670607317540    1.66129875819084
N          -0.35612971172513   -2.78589844435222    0.34131114228995
H          -0.43847289586889   -2.46583573713751    1.30501750397735
H          -0.19679943115955   -3.78697579327104    0.28706392641508
H          -1.23127008848904   -2.47228935373529   -0.20987869666606
H           0.46669372234167   -2.20349123497192   -0.09066425181067
