    26
        -50.45511609  Gyration_radius:  2.50358958415 Dipole_moment: 4.632
 S           0.61350361752441    0.93730289133272   -0.19378121134782
O          -0.25257787906802    1.36140215650019   -1.27084575834616
O          -0.02531473898085    0.99497614897012    1.11374021565991
O           1.15950543768940   -0.40665814759043   -0.45047676005636
O           1.83537084590126    1.89939391269120   -0.11444885820315
O          -2.17011266305978   -0.48556183023636   -0.84943663045308
H          -1.43587649299816    0.06742709328908   -1.17021213215105
H          -2.64052404842490    0.10661776479504   -0.22952716939781
O           0.50948406378237   -0.59207777406389    3.10926426244381
H           0.22360866378609    0.09663332733748    2.46024722584120
H           1.29541795197046   -0.24894886089885    3.53839318744199
O          -2.63839414341599    1.62989907417403    0.76676181849750
H          -1.71742073413691    1.46314992748980    1.03749266199881
H          -2.58687151206407    2.32525896763936    0.10737794816850
O          -1.59177281461470   -2.70256186942573    0.36699308586895
H          -1.66330247382185   -3.37696612385521   -0.31090190387914
H          -1.84873140925174   -1.83916766202611   -0.07435518956974
O           0.74432690415800   -2.21952616512677    1.16628526415219
H           0.65961864883050   -1.70156655998619    2.04374910680535
H          -0.22348320770945   -2.49586631788179    0.89028773667764
H           0.98717529063444   -1.46372254788729    0.45237237445278
N           2.23430583443838    1.33266068523229   -2.62519125402438
H           2.49859902600221    0.35596692817440   -2.59957703005902
H           1.21916011644994    1.36955403818427   -2.65924049717720
H           2.20407688764129    1.84243664172410   -1.03771857590714
H           2.61022882874420    1.74994430144462   -3.46725193743576
