    26
        -50.45477961  Gyration_radius:  2.80071444451 Dipole_moment: 8.793
 S          -0.95663231430169    0.08489863319230    0.44851121879709
O          -1.90227625940719    0.39460684167565   -0.61510035533262
O           0.22322273690921    0.96168874875322    0.36051225369647
O          -1.66281775016436    0.34019520115041    1.78770028480369
O          -0.54112678159955   -1.32014696526629    0.39925119848954
O           0.12818245577329    2.65991590374411   -4.22626168466160
H           0.76526180186446    3.37595534194788   -4.27087745006542
H          -0.74009624126340    3.03310344254826   -4.39427420646958
O           0.59122072275367   -1.88854161150735   -1.90377466070727
H           0.14801402405669   -2.67435251664976   -2.22705997368971
H           0.24188511999625   -1.74166629655896   -0.99049442133137
O          -0.19456796730190   -2.82628251603471    2.55504562280875
H          -0.25573184712920   -2.34059064270577    1.70417883184981
H          -1.04389058320012   -3.25436720070729    2.67505001432198
O           1.93980632692057    0.83233600968200    2.35427946745045
H           2.06450242134295    1.74724931573530    2.61207878201924
H           1.36331263101516    0.85272364679295    1.55660410918053
O          -0.08321043625538   -0.37182457296405    3.63258940495662
H          -1.04831177805171    0.08117999555391    2.57601215624194
H          -0.02533069835992   -1.33226248368508    3.43915454033256
H           0.76628033548093    0.01092960995794    3.32153133750920
N           0.06344803672846    0.69249125981062   -2.21397582740778
H          -0.92977400804067    0.61678049982056   -1.83486549597464
H           0.53331345353681    1.00861469266722   -1.33805719169967
H           0.38568390747817   -0.28245823325508   -2.40331309233990
H           0.16963268120944    1.33982389629885   -3.00444488277403
