    26
        -50.46839080  Gyration_radius:  2.49659789358 Dipole_moment: 7.378
 S           0.42368564503236    0.81278699132412    0.55440702147959
O          -0.89048850802698    0.15086773924958    0.51554710450595
O           1.43741607235816   -0.06818421917595   -0.02166969736732
O           0.37497638103369    2.09001949875513   -0.14356223029073
O           0.76538329124150    1.10366708092720    2.01780082096459
O          -1.82553356128366   -0.09254349316063   -1.90622632504284
H          -2.76278873210120    0.10111802141824   -1.85046808672112
H          -1.48920023281135   -0.06280519405880   -0.97466545659693
O          -2.05383913113247   -0.32698585738250    2.86823941028543
H          -1.72515131411431   -0.14349173488077    1.96404336313296
H          -2.18843343885377    0.52809184758732    3.28004697082795
O           0.44279515955551   -2.36626757475625    0.82106015844817
H          -0.48399659907057   -2.22038249404294    0.61241183053356
H           0.91350163688875   -1.59468124232531    0.44546524602546
O           2.26663260871224   -0.18915136164906   -2.50128231578364
H           2.12536572024514   -0.14194612748176   -1.52595856869372
H           2.22425541025231   -1.12151195551261   -2.72299061213227
O           0.50815985087540   -1.12279534145557    3.19348545182902
H           0.60071971424173   -1.76775584864282    2.45711130097143
H           0.74994312684361    0.21488213290029    2.53343774661823
H          -0.45498583806286   -1.03652026375411    3.34047190051429
N           0.20451589454106    1.46743664382428   -2.62977804462488
H           1.03604516470160    0.83933518871161   -2.78862118734831
H           0.31665274996294    1.85332738983454   -1.62863093409437
H           0.14821799060992    2.20982069223737   -3.31811311528057
H          -0.66384910164281    0.88366945151702   -2.59156174214867
