    26
        -50.47291093  Gyration_radius:  2.43281451682 Dipole_moment: 3.132
 S          -0.04918698105252    0.17807714998587    1.08523825798670
O          -0.13093354054422    0.53510935725470   -0.33538566270675
O           0.01671569366975    1.50164786453101    1.89072643080041
O          -1.21961970640821   -0.57238130335588    1.49987705187249
O           1.19853662840283   -0.53490361694865    1.34616218116515
O           1.82147261883136   -0.05157279939137   -2.07009746678991
H           1.03126636969010    0.33616135206890   -1.64631876831278
H           2.55461797694535    0.28658270745750   -1.52073915585850
O          -1.47434133326981   -2.06755051881567   -0.64592676287600
H          -1.85984474269197   -1.44552493689551   -1.26824168285584
H          -1.49120587389480   -1.60262406948299    0.22225562123789
O           3.18354480959216    0.77701860678974    0.11779948515624
H           2.52379379831923    0.31150456497261    0.66990009422664
H           3.21807004537879    1.67484134100190    0.45087219157803
O          -2.47075592505068    1.60328360540589   -0.86167563362088
H          -2.31680527729807    2.38558742920397   -1.39400068138257
H          -1.59153767861615    1.18204779102326   -0.73009040511864
O          -2.54092465125364    1.75958703863362    1.83622108462157
H          -2.55243622063685    0.80595215224579    2.00038354105492
H          -0.94233107360889    1.78273892634748    1.96563441683359
H          -2.72482542358023    1.84511575860524    0.87761734310749
N           1.17899817920162   -2.17895394219265   -0.70902806494601
H           1.52762887893860   -1.46047937726795   -1.42746915475067
H           1.66912225928073   -3.06558760978297   -0.75564475338381
H           1.30772419986796   -1.69786932196471    0.21816806962451
H           0.13325697981098   -2.28780812943215   -0.81623758665700
