    26
        -50.46492668  Gyration_radius:  2.50130843781 Dipole_moment: 5.651
 S          -0.25432902284735   -0.92985772891101   -0.21457595805549
O           1.16557870917599   -0.69067302978489    0.13205218575287
O          -0.29332495745950   -1.86011295226023   -1.43000695655416
O          -0.93827226271785   -1.57964055722149    0.87614978915609
O          -0.88106884128335    0.34259384772136   -0.58768943558429
O          -1.80579964483268    0.61977491458196   -3.07384362527924
H          -2.52851836562850   -0.00165747536046   -3.17418697214357
H          -1.55046383580097    0.58923098164182   -2.12884573773252
O          -0.92072135181371   -0.37676607285080    3.19829579721225
H          -1.04437625731300    0.52333024073442    2.82727203098744
H          -1.14300396783251   -0.96480912662035    2.43997780302692
O          -0.88112668323060    1.76832425655351    1.61730507853984
H          -1.58211329687053    2.41520887885868    1.51866586767020
H          -0.87250490939334    1.25215051939035    0.77836789857835
O           1.62489726739484    1.28501546065921   -1.58624684485619
H           0.81997395293779    1.79389959946045   -1.45470824114141
H           1.59399790587105    0.58134167441416   -0.90967810848903
O           0.64250346525623   -0.48748941294382   -3.34248168978501
H          -0.19501843741810   -0.03093927008512   -3.55944340346031
H           1.18909906711983    0.18527963530421   -2.87954341751263
H           0.13674932806161   -1.37087469984047   -2.22226827251427
N           1.57572056857174   -0.61407946291072    2.65981476535327
H           1.45328546624510   -0.67416748888056    1.58104233676289
H           2.12945365675694    0.20373995620582    2.89466788366017
H           0.54235540465573   -0.51823223673352    3.03631629764207
H           2.01702702239869   -1.46059046112975    3.00359093875869
