    26
        -50.45974570  Gyration_radius:  2.48771497183 Dipole_moment: 3.658
 S           0.26393890565205   -0.98615590168357   -0.10992693281044
O           0.42358722011020   -1.71160695098045    1.26730084421945
O          -1.16433711404950   -0.74738426046833   -0.26434972540429
O           0.98833766582460    0.28903624756217    0.01736596359999
O           0.83990662429496   -1.80963131502126   -1.14826152300855
O          -1.88045454710520    2.32621832226555    1.79121126754127
H          -2.79679993466423    2.53783701936903    1.60210190705253
H          -1.87034480150850    1.37118727889800    2.06448373785769
O          -1.87903839993438   -0.26060209147726    2.22203772486957
H          -1.73834154633860   -0.53123661219475    1.28986643611543
H          -1.18560783607690   -0.70991559236112    2.71069203728195
O          -1.69400263222442    1.15072967686046   -2.02203310576971
H          -1.78904548663451    0.35861521838905   -1.45241660280079
H          -0.96903856208133    0.89645388198350   -2.63433510134409
O           0.63183024777672    0.19460086272823   -2.91635074222345
H           0.69420425187150   -0.64356507224475   -2.41940888590782
H           1.34376675019427    0.74329911037515   -2.57908802039730
O          -0.37716832701556    2.34503912688939   -0.26965175956257
H          -0.99576243534172    1.97645039759304   -1.05489238121262
H          -0.96134286833523    2.41404977910031    0.57231747218957
H           0.26492674968403    1.53128070303494   -0.10324787561925
N           2.91892730559843   -2.18713989887727    0.71722958309152
H           1.39020289802235   -1.97444027365140    1.27238701919842
H           3.51118070962836   -2.99103000299536    0.88042344248769
H           2.55038376211723   -2.23278860918471   -0.23003210923230
H           3.48009143054216   -1.34930108392237    0.79657731979716
