    26
        -50.45899736  Gyration_radius:  2.47198879398 Dipole_moment: 5.020
 S          -0.17547897968530    0.20913056110479    1.02289054857126
O          -1.63676519248531   -0.14100181153877    1.48046729110512
O           0.67064927405435    0.34975381981325    2.17618460900339
O           0.24181706667929   -0.92981996764156    0.17561776848137
O          -0.32211755902972    1.41156739043116    0.21651145529330
O          -2.49429086522532    0.89470626974497   -1.10271428930651
H          -1.73872100904625    1.28761575539706   -0.60040758728878
H          -3.07483538004375    0.53421508724369   -0.42724615278306
O           1.84164927012320    1.82672245412887   -1.32892055728217
H           1.05318051129201    1.90244248238657   -0.76166711269611
H           2.45366338887533    1.26986025229108   -0.80860613482785
O           0.77215344233138    0.56573092484158   -3.30573732355906
H           0.36161956627291    1.25153750149821   -3.83609586747336
H           1.28082515116715    1.04547935624553   -2.57682773488351
O           2.79704666914961    0.03282196594361    0.46452362719426
H           2.20525135084960   -0.66672482726099    0.16043234177088
H           2.38326515505160    0.34174605026541    1.28251527249473
O          -0.87479468707319   -0.83765352135170   -2.02737222769015
H          -0.37453576078622   -0.97001948432792   -1.09962290974006
H          -1.63089408541501   -0.18660237592144   -1.78986918166837
H          -0.19058897963763   -0.30102244871919   -2.62173549484576
N          -0.71519361040178   -1.89943412366474    3.15393872430366
H          -0.99566512012266   -2.10175075671152    4.10483312131150
H          -0.41604313650630   -2.76114868159550    2.71635929889897
H          -1.49878401869176   -0.86666287261129    2.16025602852743
H           0.07758752829891   -1.26148899999144    3.17229250709358
