    26
        -50.46970781  Gyration_radius:  2.55335965118 Dipole_moment: 5.555
 S           0.39621892104206    1.02289831344711    0.21692723908523
O          -0.44318839894674    0.37928551493951   -0.79314774440501
O           0.25371265774008    2.55561059403997    0.06163304145160
O          -0.04936185410229    0.69664799762429    1.56975917911264
O           1.79747847722874    0.65670246571361    0.02247004418644
O          -2.59960521600018    0.15646045395800    0.71911223370661
H          -1.98179968118254    0.19467662468347   -0.03770200857420
H          -2.10134258912881    0.59953794520905    1.41730658745352
O           1.25320610502601   -1.84888649358851   -0.59632277054606
H           0.54561428448991   -1.63812011114999   -1.21510533752341
H           1.66686496586426   -0.97729680046077   -0.41058296291713
O          -2.54116221978245   -2.36495911097970    1.47978351371044
H          -3.21525382040026   -2.49126078203946    2.14888254312910
H          -2.68343159193399   -1.45259210202593    1.11131478052379
O           2.63733025174949    1.57885020360607   -2.31875199887379
H           2.41455070762816    1.18780894944550   -1.44661363083108
H           3.37568585632870    2.17038782558642   -2.16467103419905
O           0.10083272657271    2.43287481436135   -2.49157219079832
H           1.03742169876565    2.20976286026752   -2.67790564616862
H          -0.33548149059096    1.58447561378439   -2.32627523965445
H           0.17434141071892    2.71194260669836   -0.92883115736594
N           0.06420149016991   -1.89900374252742    1.75678054015159
H          -0.93186743889312   -2.23611390146276    1.71455545604393
H           0.57098348240561   -2.30606916242966    2.53520094256852
H           0.55308859795486   -2.08847856222093    0.83302538347278
H           0.04096265727301   -0.83514202447813    1.82073023727803
