    26
        -50.46970778  Gyration_radius:  2.55329820691 Dipole_moment: 5.551
 S          -0.28508581663074    0.20187119223257   -1.06241229201689
O          -1.14628749413833   -0.95885568484256   -0.84767503854837
O           1.00692705263882   -0.19753619663057   -1.61614996846662
O          -1.00961177545716    1.10740888677856   -2.08640170950753
O          -0.09657250163151    0.96436368196421    0.17140688781546
O           2.38372815805963    1.96552105068998   -2.29626993634247
H           1.95834138234501    1.11235526751397   -2.06333740525090
H           2.57844619278383    1.91890221747748   -3.23367490770422
O          -2.33894098525862    0.19126112544866    1.33742752916136
H          -2.52924533436724   -0.31397540267540    0.53707754886243
H          -1.52115486009646    0.66945658318401    1.09548800794571
O           2.06252908787268   -0.73739773321902    0.74010853339384
H           1.87463030919787   -0.58668306189253   -0.21240677886470
H           1.76064488140254    0.07392585578555    1.16290004731442
O          -1.53198027110040   -1.67091103237479    3.01679120328942
H          -2.30668775214777   -2.10315768264723    3.37878258433851
H          -1.86554639544005   -0.88613524708735    2.50564491161744
O           0.22224964608718    3.21713421840364   -1.31928876352726
H           1.10459086734774    3.00781188782256   -1.69252523089602
H          -0.63921096305689    2.02927258578953   -1.92888794833424
H           0.20574697998221    2.79202656442405   -0.44955476459795
N           0.02538113772744   -2.39370399208126    0.98356740649052
H          -0.52970071765415   -2.24688019785482    1.86554342273758
H          -0.50882883491410   -1.92906046011406    0.18659163807960
H           0.93671615389193   -1.85011494350288    1.03092877829811
H           0.18892184255135   -3.37689949260693    0.79632625470108
