    26
        -50.46869376  Gyration_radius:  2.60962006146 Dipole_moment: 5.843
 S          -0.47365229338835   -0.83531575807416   -0.62728185636428
O           0.24389005390705   -1.52775073103796    0.43796732066441
O          -0.45077118676897   -1.77599799035344   -1.85970871519491
O          -1.85012290699172   -0.55390332883090   -0.27159957623409
O           0.24037871493396    0.39507280964656   -1.00899515130808
O          -1.04380410219340   -0.16042443739823    2.31383548725346
H          -1.77916018109230    0.02006423513273    1.71581377775560
H          -0.51783179264230   -0.80622229638189    1.80489193625719
O           2.81145358118111   -1.47268663481092    0.90764176425925
H           1.87394131985978   -1.63128543891670    0.63924835272794
H           2.95771508774289   -2.02279002133299    1.67898920782538
O          -3.29417588302557    0.47014916899330   -2.22857625496256
H          -2.82174037094602    0.15244584423925   -1.42680687141221
H          -4.01096891010393   -0.14959350238454   -2.37402837970640
O           0.68355156518162    1.75647801695357    2.80763996167792
H           0.95094472401788    1.62653174218760    3.71882966867501
H          -0.05370251642017    1.10992633636972    2.64777938401642
O          -0.92761442470474    0.18558607432329   -3.44950144871492
H          -0.40024105154057    0.67653431022123   -2.80297285706816
H          -0.64467318298581   -1.16353286912084   -2.62633508191784
H          -1.86112077689377    0.38723720024137   -3.22251976258352
N           2.09887772879720    1.08445527301434    0.65204601690758
H           2.73668551402229    1.77614451598021    0.27396187025481
H           1.62504843881322    1.43018065125973    1.52635619006132
H           1.32876395952348    0.85662887889064   -0.06296610867669
H           2.57832889172250    0.17206793118746    0.83629112580690
