    26
        -50.46869376  Gyration_radius:  2.60962926972 Dipole_moment: 5.843
 S           1.02315372720651    0.49583484212742    0.15049151945781
O           0.08810305952811    0.49934779416328   -0.98752219541063
O           1.18262602562578   -0.85792947452494    0.67104034878330
O           2.40880416076967    0.92488577571031   -0.39742178667423
O           0.60717433962651    1.43397242846347    1.17383272764107
O           0.94090451234874   -3.09669321872043   -0.65018954980825
H           1.09811660175497   -3.80161480077938   -0.01983119370802
H           1.19618026462582   -2.26175739851039   -0.18777412483798
O          -0.87469511663857   -0.55996455117708    2.32177764101688
H          -0.06853927839902   -0.85269287228311    1.85575719711875
H          -0.77886309696800    0.40006099096044    2.31155042204103
O           0.53661624406255    3.95042946703252    0.38253881354338
H           0.47335018316373    3.03952329040015    0.74754496859630
H           1.15382242563888    4.41777153084113    0.94794641896996
O          -2.80531169917867   -1.65214983845479    0.91403208745800
H          -2.15786700191119   -1.16800216045161    1.49157514975650
H          -3.08620875588747   -2.41559932265434    1.42087896519861
O           1.33947967834284    2.74063376358469   -1.86780393147312
H           2.19303124943259    1.68116680145721   -1.01544421855233
H           0.61767885048095    2.09778773408472   -1.92157429711631
H           1.05389502329882    3.38792782758263   -1.18731145856602
N          -1.24967333750069   -1.69850280149569   -1.24911135549709
H          -0.73567641493109   -0.75666458345884   -1.17901908147609
H          -1.94583000309358   -1.73717392696648   -0.46022803666330
H          -1.70261427706888   -1.78593159986409   -2.15209792379220
H          -0.50765734432699   -2.42466568706328   -1.11363711601635
