    26
        -50.47472218  Gyration_radius:  2.50573736232 Dipole_moment: 3.308
 S           0.53821517045162   -0.26407757654395   -0.95922257870020
O           1.54084992057900   -0.67331150076236    0.01225838769990
O           1.15906250549368   -0.41548200180463   -2.36269356457166
O          -0.65104148785206   -1.12036733064112   -0.88743544745132
O           0.17227048446086    1.13795807864359   -0.76275446570190
O          -1.58464728470608    1.88811975470824   -2.58827997070013
H          -0.96864918736028    1.67749218144249   -1.85251718693254
H          -1.24249739316675    2.68129763662067   -3.00381239924590
O           1.19809133428453   -1.98610153315134    2.33334408094131
H           1.64854589431335   -1.32646535851088    2.87180931203176
H           1.45880012240589   -1.77032972008654    1.41670098320816
O           2.05731044473909    0.83436625962783    2.12971362428787
H           2.73473041419712    1.48792157023202    1.95137322842760
H           1.94049171066557    0.32986178387282    1.29294495885308
O          -0.55210925562939    1.48877743228513    1.76795997137926
H          -0.38523279951898    1.54144516488890    0.80252902797435
H           0.34352583581200    1.43022745015171    2.15191765381101
O          -1.13082775540700   -0.59187369931103   -3.48926117416714
H          -1.45496096276343    0.32570111102839   -3.36498015517382
H           0.36025525871097   -0.49363052901664   -2.96636814447382
H          -1.38098931602682   -1.05720946145051   -2.67788414896291
N          -1.19157564851551   -1.04066083654202    1.65856996961982
H          -1.09397867287141   -1.16458449112413    0.60786521471646
H          -0.36376200527174   -1.53247083387111    2.08852735938064
H          -1.07499718649798    0.01131457295020    1.82973802855446
H          -2.07688014051162   -1.39791812363803    1.99995741519473
