    26
        -50.46812562  Gyration_radius:  2.51018955832 Dipole_moment: 7.108
 S           0.42238679349948   -0.24006541186373   -1.08840031996179
O           1.72690056439135    0.02139906735469   -0.50117210558389
O           0.66491143859581   -0.81313539431971   -2.50721728102648
O          -0.30023301164627   -1.25499614306798   -0.31484864685952
O          -0.37829575027296    0.97353591249408   -1.21069982679096
O          -2.40315705683996   -2.19638888689864   -1.61434407642924
H          -2.16093349464433   -3.06643797865623   -1.93595511347869
H          -1.65112578066387   -1.89250471092405   -1.05983156100472
O           2.36906713937703   -0.59885771085669    1.94357116689318
H           3.32742631416876   -0.61806058834759    1.94729445217371
H           2.10818869575316   -0.51073538996683    0.99151290782488
O          -1.46790899448104   -0.22885263183394    1.77041946953816
H          -1.07518862206457   -0.58002811212090    0.93058373624263
H          -1.73886867006398   -1.00354001130893    2.26685976012425
O           1.09129491999177    2.55064129081097    0.22213349899414
H           0.38867795221707    2.15545366901401   -0.34861574769139
H           1.86654772188122    2.04283325562314   -0.05166640272568
O          -1.70642030964825   -0.16666174299596   -3.24524359943348
H          -0.20014469208378   -0.62816021538649   -2.97595624477241
H          -2.20171891613981   -0.87358848910381   -2.78184311488383
H          -1.58147765823058    0.53891454224015   -2.59089728261714
N           0.57894903391695    1.29515944881040    2.46435874513417
H           0.74763101300899    1.92277181022196    1.60863596475723
H           1.35604209082654    0.59017072925689    2.47148796627968
H           0.52879393131824    1.82870375473281    3.32474985362006
H          -0.31134467216558    0.75242994708745    2.28508379168039
