    26
        -50.46862057  Gyration_radius:  2.50712655749 Dipole_moment: 3.957
 S           0.01998191554692   -1.11166776009474   -0.15311946919866
O           0.04221851150147   -2.05843692374748   -1.36876718318980
O          -1.36445708808128   -0.75557707240384    0.14360472537332
O           0.65517947594400   -1.79129181673515    0.95485509119862
O           0.78210970131574    0.09885464618269   -0.52732565147721
O          -2.45559402445390    0.82224999787189   -1.71129742157707
H          -2.24610407367192    0.26086652319565   -0.93918763202753
H          -1.86189871057397    1.59122483839331   -1.62735683494132
O           2.75526283654418   -0.94697071938072    2.29878825036966
H           2.00599757977966   -1.40020971680445    1.84416979867930
H           3.54399958194974   -1.20401342813988    1.81902195978829
O          -0.99594898061739   -0.14666129201104    2.65622904043108
H          -1.30741329857161   -0.35832305930347    1.74435504956872
H          -0.66343632741854   -0.98331710499745    2.99351668413152
O          -0.19699145828720    2.35273353064918   -1.56202006410133
H           0.19414746721170    1.52348824021266   -1.21785916985885
H           0.11464535313519    2.43028650731974   -2.46556893112766
O          -1.07448432589855   -0.72896073341815   -3.27144345940694
H          -0.34536690446177   -1.54262627935075   -2.13840951377928
H          -1.66884111133004   -1.32006962669101   -3.73763369487141
H          -1.66005736314897   -0.09144503112046   -2.76287427787089
N           1.15830083272381    1.11466355299878    1.82205637809271
H           1.29259735799140    2.11297882376478    1.93966761263392
H           1.04791418176624    0.83502420766645    0.79710022994364
H           1.95569269277579    0.53868229383219    2.17694652072027
H           0.27254617832318    0.75851742210910    2.29255197249971
