    26
        -50.46383702  Gyration_radius:  2.47238226152 Dipole_moment: 4.060
 S           0.10292719021643    0.31429363332061   -1.59619558203052
O           0.89014350055572   -0.02752579952526   -2.78131203427123
O          -0.90759961402254   -0.70133205985781   -1.30703417437177
O           1.16146760041230    0.22199662990418   -0.43424576708479
O          -0.43887682936707    1.65020368530499   -1.61560640852106
O          -1.48795117246985    2.62271241817298    0.54027116234868
H          -1.05519188114905    2.27163416940468   -0.28222234281025
H          -1.79275756310075    3.50201049405689    0.31121224466626
O          -0.07135363351710    2.00877472915872    2.79597091687001
H          -0.50636988402335    2.32162924850338    1.97840826003071
H          -0.71508960916570    2.11479661088888    3.49852417123663
O          -2.36351402753801   -0.02029191087544    0.82481135801261
H          -2.05836879768482   -0.31038012902703   -0.05618804278678
H          -2.34447689160432    0.94731366659563    0.79603478179457
O           0.35885892796108   -2.62563984566735   -0.09846766376869
H          -0.28330702310971   -2.04186444420808   -0.57214362990393
H           0.42233637834737   -2.24017626191112    0.78528087979554
O           0.05564506443958   -0.47165911670237    1.76832709163929
H           0.72231252906125   -0.01154101947180    0.44773434362944
H           0.20100621420228    0.33536978663524    2.30408222229982
H          -0.90967642480092   -0.43226810871019    1.53728437257710
N           2.23497255597868   -1.91216810912355   -1.77467693622361
H           2.53825211131449   -2.63153993637997   -2.42365861749018
H           3.02672855030770   -1.48280459664340   -1.30478530603311
H           1.67318215397478   -1.10148530464823   -2.29803845257750
H           1.54670057481297   -2.30005844919782   -1.04336688701748
