    26
        -50.46564191  Gyration_radius:  2.42040542191 Dipole_moment: 2.447
 S          -0.43899494040597    0.42361172021139   -1.14432891457856
O          -1.17278742704551   -0.52985352286696   -0.29514576193408
O          -1.39118968870137    0.83908623993433   -2.28869667336868
O          -0.12115373569606    1.63137216066196   -0.39156788633115
O           0.74704859066955   -0.20199947887903   -1.70409447852054
O           1.92006064247008    1.62845038229145    1.24084083201715
H           2.35171456891733    2.48393964975417    1.23602802922735
H           1.18087539942520    1.69039889168198    0.58636589334507
O           0.19280885627128    0.44215272619925    3.00151955095858
H          -0.64016164118408    0.87218362649775    2.67952542103026
H           0.91744894028317    0.96089697314128    2.60603210045678
O           2.35556703161970   -0.89424042770071    0.24697848248767
H           1.89318819209727   -0.69196674838209   -0.60090606463314
H           2.53608226937955   -0.02637888181818    0.64646710378956
O          -1.84629636390060    1.42342618095846    1.63638605182787
H          -1.28836719371890    1.69214245787661    0.88041846965097
H          -2.34178758094988    0.66730727237774    1.30843559566719
O           0.26753633877043   -1.54250594496090    1.48703459473374
H           1.20444767937501   -1.41839771622087    1.03472492153447
H           0.22511728364111   -0.78139250182694    2.23706194353754
H          -0.39334865157245   -1.21644120716680    0.75657941761629
N          -1.26858338588488   -1.61726261404621   -3.11710114924569
H          -1.32880024802663   -2.09168423681915   -4.00893089966167
H          -1.51886026864559   -0.02678657969081   -2.77371145966849
H          -1.74798604799889   -2.17125871103943   -2.41912218155473
H          -0.29357864920751   -1.54479974016525   -2.84079294840134
