    26
        -50.47104617  Gyration_radius:  2.54677469073 Dipole_moment: 4.089
 S          -0.74617228053884   -0.80055403150526    0.12847601574291
O          -1.68375371683722    0.21093157949164   -0.31022895837399
O           0.36396541638955   -0.19529566470945    0.89042143406473
O          -1.48224494901527   -1.76536554103064    1.08755819775530
O          -0.21876916798745   -1.57003780067819   -0.99652579253368
O          -0.33348555011725    0.41899957489773   -2.71732746504811
H          -1.22571144091367    0.68997226176109   -2.47391987139906
H          -0.24073812178362   -0.45648067490733   -2.28181221509432
O          -1.36007117692837    1.93959558713263    1.65612504159307
H          -1.66084080174731    1.33871899920670    0.94069057548905
H          -0.69254087812149    1.43105889477955    2.12553675020171
O           1.43584053708791   -3.50227633546955   -0.26486001391424
H           1.09386744422553   -4.31828235508421   -0.63407409333735
H           0.87471511243183   -2.78352929411509   -0.62957059774381
O          -0.16898631311152    3.70819798932382    0.11912445809251
H          -0.85934513033923    4.12501933260535   -0.39912016026754
H          -0.63869689819886    3.15831545626524    0.80195190925701
O           0.70479155059172   -2.59135392365737    2.14711068233259
H           0.98869854462989   -1.67652554145807    2.01128677399720
H          -0.75299140394395   -2.22552756930388    1.60192232496777
H           1.09995221878058   -3.09195512740139    1.40107138160994
N           1.12681845614720    1.60495996368758   -0.85065345072562
H           0.62617901190717    1.23445100762338   -1.71044012432748
H           0.93552896207457    0.89215454564717   -0.08592891828255
H           2.12336747217953    1.70519884174196   -1.01292984603744
H           0.69062312312243    2.51960980514431   -0.54388403804153
