    26
        -50.47115282  Gyration_radius:  2.41887118365 Dipole_moment: 2.762
 S           0.57161814886149    0.77227427041435   -0.51307320641341
O           0.15907968714247    2.25819647389365   -0.68736759976039
O           1.03109571457208    0.22959516504074   -1.77560274525135
O           1.61372999012757    0.77952445106982    0.51125040323825
O          -0.61367998457937    0.04729793806709   -0.04089288481278
O          -1.51242745665925   -0.50536526051358   -2.45526087609551
H          -1.32390935337485   -0.43057078391538   -1.49648013437405
H          -0.64165807203132   -0.44658516865060   -2.86729490730550
O           0.89555529010102   -2.31725895290080   -1.09338689036183
H          -0.01624664594188   -2.51687889369865   -1.32205606801859
H           1.06175612321444   -1.40991548296690   -1.43798317154399
O          -0.80985453903912   -0.88095342136062    2.45316434818552
H          -0.52500469184055   -0.04928140164540    2.87642468359489
H          -1.02830754493309   -0.59821868054216    1.54346419994696
O           0.31502585924493    1.57747078371614    2.70667130068717
H           0.86433827499521    1.38325972329293    1.92158047780292
H          -0.09686947799078    2.42503667435031    2.53343988660436
O          -1.90503603867575    2.11925912843659   -2.27329551449942
H          -1.89062664698460    1.15914390368315   -2.50516846890340
H          -2.71013524216173    2.26368230631754   -1.77149256526898
H          -0.59275258233462    2.29033357101916   -1.34033255194769
N           1.45442911285147   -1.66290188140969    1.42877422863034
H           1.24177282793417   -2.14109611666489    0.51693172374286
H           1.73197552348902   -0.68391349607390    1.14817552309599
H           0.54513201986923   -1.52593967538513    1.98541071117637
H           2.18099967411202   -2.13619517357730    1.95440009788693
