    26
        -50.46815519  Gyration_radius:  2.43678823243 Dipole_moment: 4.322
 S           0.21832398325093   -0.20000998677354   -1.18682498768355
O           0.38828396934269   -1.63571540443480   -0.95821981260443
O           0.11085107076073    0.39111166960090    0.28321603511228
O           1.36529530111150    0.40964688129376   -1.81113657043341
O          -1.05185366706136    0.11669391619999   -1.82086473979125
O          -2.74039927570915   -0.17878992883488    0.19752362921708
H          -2.76360254747401    0.72606319724518    0.52085693019009
H          -2.24504319207218   -0.13652448131232   -0.65212615725992
O           1.17183700078280    3.05448790476913   -1.79614587154074
H           1.30808167135966    3.36599386541499   -2.69237459361869
H           1.34360108878931    2.08799549315774   -1.81898400726896
O           1.00189475302009   -1.29361118826288    2.73950756792517
H           1.56825540305743   -1.02250935216086    1.97947773978536
H           1.51816698392288   -1.93740693726267    3.22810522236975
O           2.52318649438654   -1.01390306891964    0.54153011758353
H           1.87427122881345   -1.37655227136927   -0.08668472179812
H           2.76633732874092   -0.16358706241288    0.16745843111053
O          -1.14807691834204    2.49683893725020   -0.55987398435656
H          -1.39042329826868    1.88156163080409   -1.27139093869300
H          -0.30989401889094    1.28446268531596    0.18374702440002
H          -0.38044866435347    2.98933680026168   -0.91203466994880
N          -1.04506359348882   -1.99188202908896    1.17058589298238
H          -0.36614945727663   -1.68518172091248    1.91581397639793
H          -1.45096229693676   -2.89952309774483    1.37239626979585
H          -1.78822015482840   -1.26630777976396    0.99888288469244
H          -0.47824918264588   -2.00268868207050    0.26755933344125
