    26
        -50.47115277  Gyration_radius:  2.41913975869 Dipole_moment: 2.761
 S          -0.03289542983917   -0.76104724615129    0.77841308210278
O          -1.15755756403587   -0.95325270218490    1.83038346031998
O          -0.22138042209024   -1.84044970488973   -0.18844760959277
O          -0.25117471281675    0.54490408186529    0.14572883292864
O           1.26526790499468   -0.80506776038338    1.42066577706349
O          -1.10188617952608    0.77670742289465   -2.37305723841217
H          -0.86543834741844    0.97796213781413   -1.44638152462345
H          -1.83017543013821    0.13453404439253   -2.27680492232089
O          -2.56838030695274   -1.25317225578592   -1.32410126230216
H          -1.76103274326671   -1.57624922293876   -0.87723353023495
H          -3.23831093700231   -1.19449416123899   -0.64171535157887
O           1.18563618666487    1.88448572878746    1.90173282275000
H           1.72319219629948    1.12134821315705    2.14696726128302
H           0.65279745258821    1.56265732859924    1.14486177733327
O           2.64183013844119    0.24385885219136   -0.57324245845464
H           2.55676895489672    1.18082566431349   -0.37746658747533
H           2.25635541008835   -0.22413113425799    0.20271854158808
O          -0.95280287029794    1.17820431029190    3.31660463922756
H          -1.09854445188435   -0.20005927866856    2.47997298271789
H          -0.12570750100906    1.57511317308968    2.95010447958681
H          -1.66184681145712    1.78942708866218    3.10586844169590
N           0.93719335332745   -0.84360162559434   -2.30907141660921
H           0.50661104867827   -1.44838404299393   -1.55867332048027
H           1.25758258079079   -1.38351988339173   -3.10534045618514
H           0.16129369436415   -0.14106762580533   -2.55378164042675
H           1.72260479665974   -0.34553139185565   -1.81870477989126
