    26
        -50.46815522  Gyration_radius:  2.43673267476 Dipole_moment: 4.328
 S           0.65254515107718   -0.96551675768459    0.37000158141701
O           1.60283503908519   -0.80065541779749   -0.73097904684623
O          -0.25259737422180   -2.08495502187948    0.16205843408179
O           1.28327603890322   -0.94107778173493    1.66558982576558
O          -0.25605565091095    0.33254166055047    0.26242126714620
O          -1.90283049072680   -1.10001241565731   -1.65964000729656
H          -1.31015193486374   -1.62008809600180   -1.07030882561047
H          -2.58865448991853   -0.75160549688975   -1.08338986303555
O          -0.51531063975830   -0.80293985823345    3.60910540735857
H           0.21989903273977   -0.82175734434821    2.95846203685014
H          -0.33411810341481   -1.51077178423836    4.22958119256112
O           2.26420825628417    1.55666279267205    0.36409339159674
H           2.22680026092866    0.67405512098670   -0.04434685456282
H           2.02163298279204    1.40470363384837    1.28069374595626
O           0.66496165183837    2.77943202278342   -1.41687129376029
H           1.13703424522189    2.38895478897682   -0.64449391633660
H           1.28276162034489    3.39902693668801   -1.80950153606645
O          -2.20755526179135   -0.82230487050888    1.52197065607655
H          -1.85746197185819   -0.74104205098317    2.43125979257935
H          -1.08436503582990    0.12317905869974    0.76756635978653
H          -1.77224871719270   -1.61265896314425    1.16230724838058
N           0.13758547485414    0.39526687046903   -2.50185576544221
H          -0.79336162612026   -0.04052508709638   -2.27455022040450
H           0.19487437381350    1.39086445373042   -2.16157116633536
H           0.83153111300403   -0.14380091946403   -1.89797645954626
H           0.35476604573487    0.31502453625533   -3.48962596431196
