    26
        -50.46930594  Gyration_radius:  2.43097718901 Dipole_moment: 7.332
 S           0.48842725165499   -1.33155692956810    0.29951801566301
O           1.51753079872348   -1.60246834818379    1.40594319258843
O           0.93355696107452   -0.17709321002336   -0.48145909503580
O           0.33768947936854   -2.51766591963069   -0.50370294091396
O          -0.79463713737389   -0.98325560935754    0.96638605996867
O          -0.69257789066787    1.45675437029847    1.84280123509731
H          -1.16216707684224    1.50872570689600    2.67674285517070
H          -0.75097691944368    0.50991929924829    1.54955478541115
O          -1.05176920150010   -2.06819094837405   -2.65444721908294
H          -1.35420279806314   -2.92744632361538   -2.95413961832909
H          -0.41164223368021   -2.25269152008494   -1.92028061425386
O          -0.70950790476407    1.82680078953728   -0.93200559152271
H          -0.79923416475341    2.10830837871267   -0.01033961478292
H           0.01971340974315    1.16612765555868   -0.90101484993717
O           3.00387836022881    1.44468924594278   -0.07232586063081
H           2.35507653376722    0.76881445504401   -0.35342261438200
H           2.81314268127089    2.22925625766776   -0.58933355588096
O           1.93167900998763    0.75991779667790    2.31193284019200
H           2.50469644325671    1.10709693878574    1.59943663427129
H           1.06636883697058    1.19207606209311    2.19321285400718
H           1.72314353017650   -0.70954662952950    1.83368673917496
N          -2.23531049478067   -0.29945187600448   -1.07493295473226
H          -1.79126798294877   -0.67600210512224   -0.18061499812472
H          -3.24691023321957   -0.25497533914459   -1.02018876186635
H          -1.78639792620952    0.66058178236043   -1.18673193111314
H          -1.90830130197740   -0.93872397018290   -1.84427498095401
