    26
        -50.46591328  Gyration_radius:  2.54486140004 Dipole_moment: 5.764
 S          -0.67226149908790   -1.14130644162752    0.36799782345320
O          -1.32000485829711   -1.08098140518338   -0.92797240697370
O           0.72839105762268   -1.78460168753668    0.08527386367011
O          -0.35403285239157    0.22846482674078    0.84861406618955
O          -1.36190506271149   -1.90903526374568    1.36861167695302
O          -2.10729823543841    1.53870176941680   -0.68302645061434
H          -2.30845327088662    0.72000100999377   -1.15320834844629
H          -1.56564177911020    1.22374212419881    0.06463783043914
O           0.44676740132438   -0.78063862683976   -2.81300944423663
H          -0.21662798869993   -1.07994179659544   -2.14341406481939
H          -0.05999112230576   -0.45045031799648   -3.55811027633928
O          -0.30987075070830   -0.74301786930724    3.47192278967566
H          -0.86548331166679   -1.25941819752034    2.84812306697903
H          -0.29493700518213    0.13856247981779    3.08710148625793
O          -0.26752056336257    3.05355573653034   -1.82623591363408
H          -0.34742707495343    3.93569592471661   -1.46106011607256
H          -1.05584320988571    2.54949594554815   -1.49580471390491
O           1.78794397181319   -1.95450421770941    2.44747600993444
H           1.19369573057432   -1.88105548634119    0.96222370459311
H           1.09146321903524   -1.46503994891448    2.96076972985558
H           1.73989234486231   -2.86511889068988    2.74631461258595
N           1.25595917587540    1.01261179220779   -1.03774366064257
H           0.85230420600472    1.92397250577607   -1.36804112796410
H           1.09588741016012    0.29164212406850   -1.79716119397826
H           2.23862706885108    1.08139083251004   -0.79718783360416
H           0.67636701854298    0.69727307851060   -0.19709111940724
