    26
        -50.46240673  Gyration_radius:  2.40649085165 Dipole_moment: 7.420
 S          -0.82847555548301    0.30370033508200   -0.37213270156600
O          -1.52594722080995   -0.56192152906330   -1.32603648763033
O          -1.65336463591416    0.59451428650358    0.79676940885443
O           0.33802102024123   -0.60075560521190    0.14006381363885
O          -0.27760352158975    1.49539159843263   -0.97629807798266
O          -0.06129300720960    2.52561483815921    1.73860560629623
H          -0.02759207113415    3.14245156641439    1.00304066341225
H          -0.75968349816941    1.88608361577169    1.50136976178459
O           0.95635559529768   -0.08414010309407   -2.83700674363923
H           0.30225885968145   -0.53775845426874   -3.37040721109931
H           0.44612188230210    0.48245437106688   -2.24007208098658
O           2.41837552594728    1.92021061055524   -1.10798662519851
H           2.61432077250973    1.26713789162937   -1.78667288424991
H           1.45077994404737    2.00986839170799   -1.13330679255583
O          -1.56594548610520   -1.60785988613773    2.16589377755570
H          -1.72767595162039   -0.72931985216610    1.73313568728444
H          -0.77660553139906   -1.48352373704577    2.69872627927179
O           1.99595819800028    0.87319902724120    1.31004323533321
H           1.05766965329124   -0.03870214955198    0.64138876875841
H           2.40147399742392    1.28952318686035    0.51527388819965
H           1.37112986032548    1.54758776150381    1.66124016739193
N          -1.23331172288498   -2.78623951875400   -0.15553568686456
H          -1.86674331820972   -3.54076673626238   -0.40039069388589
H          -0.26089919516363   -3.04527838819096   -0.30039958482899
H          -1.41915208061598   -1.87147340332767   -0.75119876994406
H          -1.36817251280970   -2.44999815790942    0.85189327264879
