    26
        -50.46152698  Gyration_radius:  2.59903464294 Dipole_moment: 7.382
 S          -0.16399561123123   -0.53678980231682   -0.46609190480399
O           1.28721604119650   -0.38195938832221   -0.35848506139613
O          -0.60082005999337   -0.79111934015318   -1.81552278452651
O          -0.65016792646156   -1.52256419891460    0.50639283717096
O          -0.80126511808707    0.78983795862487    0.05110882569746
O          -2.09318281180074    0.92475352679590   -3.18836949957151
H          -1.57087194488344    0.21084043476994   -2.76496329088828
H          -3.01081026066938    0.73620506332423   -2.98852152990778
O           2.02723439357133    0.65411074273076    1.88449759083685
H           2.82838036433638    0.18753914181305    2.13072597027710
H           1.80814876412361    0.34131045191294    0.96499497197282
O           0.02135469947945   -2.89556981832858    2.81851288909434
H          -0.17124165865015   -2.64520659566010    1.89934772993684
H           0.00528953209097   -3.85284334509988    2.84569941355118
O           1.56287831405081    0.88350631389300   -2.68565969992474
H           1.04435441410561    0.31185519078409   -3.25890480620063
H           1.63282613284173    0.39505978261216   -1.84346751255371
O          -0.38342663952815    2.47335404621134   -1.78530389382942
H          -0.63225854612727    1.52830608021708   -0.64388411433345
H           0.44795268493485    2.10850555357457   -2.16649055569690
H          -1.08374056339629    2.18439114658600   -2.40291204030833
N          -0.31638180862453   -0.20128845338558    2.68934788650075
H          -0.99749512650928    0.50544722425203    2.94578557114552
H           0.64555899732955    0.22511664118199    2.51774216761505
H          -0.25794683136581   -0.96827274379687    3.36465442796515
H          -0.57758940071699   -0.66452559329112    1.74976642217114
