    26
        -50.46094122  Gyration_radius:  2.632133931 Dipole_moment: 7.539
 S           0.23022552689193   -0.03199717345843   -0.83892216784319
O          -0.05937181630732   -0.69120626267814   -2.19234949781467
O          -0.95378300812176    0.68945199508936   -0.39615613250684
O           0.59265472616202   -1.09192709549031    0.11935336396631
O           1.36941196737403    0.86538803103235   -1.04845234466961
O          -3.47330406781474    0.10191938140048   -1.02648031112707
H          -3.73132853281121    0.79252453195515   -1.63916756207590
H          -2.59935192004198    0.36667739579902   -0.67256137499867
O          -1.14703931946673   -3.08465925344222    0.32532609747019
H          -0.52567948177455   -2.32562392908375    0.34940474164806
H          -0.60738172676652   -3.86978264283965    0.21871107111476
O           0.28668689230724    2.77346008768180    0.63592218224535
H           0.89643906050154    2.76009906945760   -0.11013213267821
H          -0.35621160105821    2.07419293182043    0.39736209029747
O           1.76702771874376    2.02512151774817    2.68251646972258
H           1.10702962616613    2.34104877582883    2.01020614433830
H           2.17519513002207    2.81199939517817    3.04633210153477
O          -2.16635867460526   -2.05461726531621   -1.93158038184024
H          -1.96366236965947   -2.55825794355111   -1.11399602913637
H          -2.81858064289949   -1.37283071130978   -1.65946233865369
H          -0.91867851405581   -1.26496220666450   -2.13608233342837
N           2.63205790421362    0.14453651824139    1.02789970181118
H           2.42750177457319    0.82860571649638    1.80077194994395
H           1.88149757512206   -0.59529282997704    0.98972864645321
H           2.38472789602684    0.60283196578014    0.09200678582031
H           3.57027588727365   -0.23669998969559    1.06980126040681
