    26
        -50.46570703  Gyration_radius:  2.62388185932 Dipole_moment: 5.299
 S           0.08499222374839    0.15430682562818   -0.68111709676512
O          -0.22608637044274   -0.67274961212219   -1.82248019824409
O           1.06306253267221    1.20446344487438   -0.94822280435079
O          -1.21329613333818    0.90996519514787   -0.24012058005005
O           0.50442369266994   -0.62883925455978    0.49282421424603
O          -2.99400685212049   -2.76613108370841   -0.12776710085295
H          -2.02403772513200   -2.94038880061422   -0.19754649676878
H          -3.42995155267828   -3.52476060179439   -0.51888402232811
O           3.51267320561926    1.33710136177865    0.04328808054757
H           3.89511339590865    2.15824014864662   -0.27133823671231
H           2.69114954731348    1.20607611674836   -0.48170602862559
O          -0.36694429299398   -2.98999315657036   -0.51208856811485
H          -0.28247111056096   -2.34454509686657   -1.23679278958803
H           0.04426261241275   -2.51996597720038    0.22500975436254
O           0.29677764876212    2.95719200188711    0.87177511893237
H           0.57765654669031    2.47738358867753    0.06049304179477
H          -0.65728257255752    2.84162756073874    0.89166166719484
O          -2.89042118882030   -0.49059375822299   -1.53724750730225
H          -2.11998386903403   -0.72804788635060   -2.07557188421865
H          -3.07959802219067   -1.28214395822723   -0.98154382005969
H          -1.98381196114724    0.43177357310008   -0.68551675426849
N           1.73151203286187    1.04428450677100    1.99555425034976
H           2.62881262446754    1.16801566520121    1.47012383464985
H           1.87082565656365    0.83404047631129    2.97717890074795
H           1.15376581321461    1.90793391237410    1.82355680392198
H           1.21286412800848    0.25575481820326    1.46647822160555
