    26
        -50.46094117  Gyration_radius:  2.63219304156 Dipole_moment: 7.541
 S          -0.79265972388503    0.31778863235402    0.17004024696148
O           0.05533422761009    0.88880508489063   -0.86592945192985
O          -1.56769612762828    1.44440523159739    0.86305202370955
O          -1.79442867256699   -0.59510415920835   -0.38677153528329
O           0.01348242277082   -0.37863736866068    1.18891428169415
O           1.59437298344601    1.17367292024996    2.64863775261580
H           1.09723440257471    0.55456656851216    2.07214760781333
H           1.38844815427106    0.92383185678377    3.55098248573283
O           1.07765691621255    3.34753839797562   -0.87255313581615
H           0.81775757382773    2.40581329730938   -0.94182081735731
H           0.57326710268163    3.81159284497902   -1.54279891531783
O          -0.27450777722795   -1.01349908741495   -2.66020947023088
H           0.04738636179826   -0.25909565198846   -2.12491753829099
H          -1.20765451953986   -1.05485613851828   -2.42343409002485
O           0.71266240103891   -3.28610862707504   -1.76513335372582
H           0.46892936778831   -2.41213037177390   -2.17028614387500
H           0.60102680670338   -3.94101419276055   -2.45561963786105
O           0.11697963771976    3.16275356848601    1.62167572279006
H           0.54196540884888    3.41936722283807    0.77446762703802
H          -0.91670519870582    2.17722937996563    1.19466086624688
H           0.77373644630924    2.59352913133556    2.07750537655917
N          -0.66811572313312   -2.71618156136564    0.42377773109847
H          -0.11544788105249   -1.98907316643861    0.95088253675769
H          -1.06901859473897   -3.42856021503262    1.02306316926458
H          -1.38393820593310   -2.03465243810438    0.01091125597266
H          -0.09006779920735   -3.11198112893060   -0.36124460454457
