    26
        -50.46094116  Gyration_radius:  2.63232177764 Dipole_moment: 7.538
 S          -0.21694889455702   -0.47736075656821   -0.69467876753382
O          -0.26685459218141   -0.50811268246986   -2.22659860739137
O           1.18426367846149   -0.27161767758796   -0.28552738023441
O          -1.06574936103771    0.60146301478394   -0.21088726247617
O          -0.68584549012227   -1.78776041673225   -0.23657603055653
O          -2.04288754621878   -0.65378483768662    1.89073647547170
H          -1.74919059824641    0.01054783133831    1.23372753973468
H          -2.11467841572436   -1.45498734024915    1.36019262733355
O          -0.11557317241307   -1.19392403527820    3.60376388199741
H          -0.86722963591189   -0.87150000615671    3.03945392983733
H          -0.51546889885362   -1.62085921282271    4.36267122167137
O           2.39149025646147    1.82603766508658   -1.37313676783888
H           1.95725930963149    1.09847292717041   -0.87830881521496
H           3.20632246892545    1.46268712564184   -1.72419894687855
O          -1.65218160982628    2.84363545534320   -1.52233508342885
H          -2.56830664487320    2.73350744910026   -1.78211156007103
H          -1.44916804594898    2.09668036738380   -0.92239303943552
O           0.29485442118436    1.81124715293389   -3.04597516337777
H           1.11011499734917    1.99864840278058   -2.53287703845528
H          -0.04192374908619    0.42541893646122   -2.61219256350591
H          -0.40650841690824    2.35308797048096   -2.62324288826002
N           1.15652759349567   -2.12172073500658    1.47206226603732
H           0.31968571591210   -2.29644303933842    0.82690466386672
H           1.52496738891399   -1.28313835429184    0.94927331274246
H           0.79666157505981   -1.83035014637146    2.41683453360374
H           1.81636763651474   -2.88987501795134    1.51541946236478
