    26
        -50.46264188  Gyration_radius:  2.4063550529 Dipole_moment: 3.520
 S          -0.71772465508398   -0.78454821016241   -0.54442081350330
O          -0.75529269556998    0.26171194510964   -1.54690819351730
O          -1.84441107737727   -1.79445149521190   -0.88138499368581
O           0.56474893322871   -1.49018650204675   -0.55216469877828
O          -0.98549786176254   -0.25574264875395    0.79945293380833
O           2.05448819318716    1.89452645764862   -0.32308719098953
H           2.15818585316751    1.22368962790488   -1.09970374810718
H           1.90867004583814    1.29853797940547    0.49895366289812
O          -1.68353750322495    2.25926829087150    1.29638008907990
H          -1.47721673341275    1.30470615459554    1.19972742050943
H          -2.63663248165181    2.33620355481343    1.23299523138153
O           1.51902297110556    0.14328860961603    1.45365642105024
H           0.53976117519356    0.06073269073939    1.38020939002555
H           1.84559428533015   -0.65510038294966    1.02256896614516
O           1.96309004428376    0.08314811131054   -2.10787265187673
H           1.27658641439718    0.36309189964861   -2.72189929478343
H           1.52560411519659   -0.62015787636357   -1.56875274243469
O          -0.21539539104091    2.72037891778138   -0.84990816289960
H           1.08877367397403    2.37599625866130   -0.52571751008410
H          -0.51998052913971    1.86964725564823   -1.25076263575672
H          -0.73374683846949    2.78536013424189   -0.01241453520762
N          -0.97370914746415   -3.20015486492568    1.13407486353658
H          -0.06018801723197   -2.97729088923344    0.75130496459800
H          -1.72832990004309   -2.48259788004654   -0.17237552409080
H          -0.96822318934247   -4.15074737241654    1.48104326900133
H          -1.14463969408565   -2.56930976588164    1.90700548368284
