    26
        -50.45627821  Gyration_radius:  2.76851998965 Dipole_moment: 7.610
 S          -0.74217009899605   -0.47491107852598   -0.23306363086911
O          -1.89400588036511   -0.41926865575638   -1.09985122787029
O          -0.54472687791808   -1.75243809809774    0.43737259953240
O           0.54844699129602   -0.30704645298074   -1.12663253669048
O          -0.69968770223491    0.63799553154614    0.72765688022378
O          -1.78951448914802   -0.00570529437508   -3.72244504567574
H          -1.61532324929540   -0.85103266685394   -4.13825856249580
H          -1.94626743544620   -0.19942426970271   -2.77359173273710
O           2.96681134193505   -0.40745614524184    0.12343110229104
H           2.16572250447769   -0.32017739307637   -0.42938182419064
H           3.58165815010829   -0.94676530469645   -0.37553020241804
O           0.62876342260089   -1.12500363907115    4.75674787511370
H           0.06311727936961   -1.89640074753838    4.83918614405106
H           0.20963130623633   -0.40845047465599    5.23869278926084
O          -1.75859215608415    2.43897464742576   -0.91988015078226
H          -2.50325321869081    1.92936892672101   -1.25232966349508
H          -1.39058817934917    1.89263849273199   -0.19746877571065
O           0.07765470641836    1.62806265009839   -2.67055254634231
H          -0.52278293283872    2.15408197778942   -2.09143737744289
H           0.41117334380948    0.49641428066139   -1.76636231686186
H          -0.52113031105706    1.17465929387727   -3.29810134344702
N           1.09373605524784   -0.65085705647475    2.03975477111349
H           0.51553914488488    0.18097780461881    1.76193081861073
H           0.52878283774093   -1.38471792815177    1.50701465062361
H           2.02951977446182   -0.57595722435655    1.60693440301257
H           1.10748568283595   -0.80756119591216    3.05616489319481
