    26
        -50.46094127  Gyration_radius:  2.63209151555 Dipole_moment: 7.540
 S           0.67610085625283    0.20860320799478   -0.50834074014231
O           1.10654932224093    0.55960493505458   -1.93719186911749
O           1.87881632089307    0.30138181496608    0.32343293260755
O          -0.31786719210622    1.20537043209213   -0.07074832794631
O           0.11076142842896   -1.13258868310898   -0.49594762408788
O          -1.10242998958158   -2.34001765139269   -2.53568370295744
H          -0.47523165314636   -3.00528960708360   -2.82355175830426
H          -0.74272131771656   -1.97146006803939   -1.70261363708085
O           1.12729074155883   -1.90772869945463    1.80884871874619
H           0.59308854490669   -1.80163520536276    0.99479279495698
H           1.95127275217059   -1.46507896203377    1.57723284611495
O           0.14497598021018   -0.44552701749179    3.76768165149914
H           0.51273744342207   -0.77695769313161    4.58806757651990
H           0.41110650174405   -1.09347977156228    3.06292360096217
O          -2.39200999100526    1.53602152741022   -1.69158615121773
H          -1.69334956146038    1.37905037577999   -1.02068985747651
H          -2.42827205408892    2.48473097184179   -1.82421844099377
O          -0.88283536319760    0.17240262147821   -3.44009138997471
H           0.32023387728574    0.41687759704716   -2.59450830235332
H          -1.07009927655825   -0.77981743633758   -3.29002369839123
H          -1.58430137700917    0.65346915426364   -2.95055971130755
N           0.77552314521045    1.59735661739497    2.20190241256878
H           1.05331705893819    2.50267214502471    2.56331422770567
H           0.48858038152801    0.92068695729704    2.95482628486417
H           0.02755889891561    1.65477722509373    1.46080795424569
H           1.51120454215913    1.12657520227111    1.58192424055631
