    26
        -50.46094115  Gyration_radius:  2.6321780585 Dipole_moment: 7.542
 S           0.58662864209775    0.61896382748591   -0.17343441937359
O           1.71386459712543    0.46946864771478    0.75069453533056
O           0.93271199387092    1.79356954617993   -1.09577292975222
O           0.45102843154555   -0.59165951387483   -1.00343046032277
O          -0.65426761766813    0.91248561725014    0.52839437814222
O          -2.61847362509277    2.48037475308199   -0.35187556736680
H          -1.99784118996799    1.83115769140813    0.03866945313340
H          -2.55178560370277    3.26905257558932    0.18898454711112
O           0.02148199518357   -0.12133277040400    2.85690208385640
H           0.90389416811813    0.25013040515709    2.74765669971304
H          -0.45634794365174    0.23380153954203    2.07927562661114
O           0.38996520263593   -2.71928081989289    2.62216550798657
H           0.11573816231337   -1.77349047083818    2.75506407160639
H           0.60423833755893   -3.05999399876531    3.49173800697220
O          -1.23257569172694   -0.39061238819169   -3.04404623076342
H          -0.67469912257988   -0.53781792319182   -2.25033680109175
H          -0.71982815498082   -0.69849591095685   -3.79324339890749
O          -1.08870645381558    2.23946654826463   -2.53832869207904
H           0.13092952741513    2.01538030489649   -1.71123740446160
H          -1.29207014283808    1.33527655960009   -2.86122704890462
H          -1.77873080454268    2.43517542994861   -1.86764301586002
N           1.87531703027697   -2.05068688407092    0.53197288846536
H           2.09094909859113   -1.03242013475407    0.78488559897550
H           1.35463323600735   -2.49195965261371    1.33286585517533
H           1.21034849943482   -1.82994307059038   -0.25598451889768
H           2.68359742838320   -2.58660989797596    0.23729122470636
