    26
        -50.45910534  Gyration_radius:  2.46318253494 Dipole_moment: 6.830
 S           0.40215708777415    0.75732033010123    0.52088925259757
O           0.30103042919273   -0.38062390723713   -0.41934752473813
O          -0.28677384141466    0.38373695813399    1.77446379243741
O           1.78380961108766    1.09286937751088    0.76704593781333
O          -0.34738511390815    1.95366189629058   -0.05176852339975
O          -2.22784365029224   -0.57762053823411   -1.34901184470489
H          -1.31453129066104   -0.68943396174725   -1.03149366413597
H          -2.70747226637359   -0.22140474739635   -0.57744166220811
O           3.14647550473137   -0.81452878767389    1.87763089634437
H           3.54021467682838   -0.43696277900507    2.66647158271087
H           2.75144891132367   -0.04572159946217    1.38508304044573
O          -2.81827544162924    0.74003805537487    0.95540434918913
H          -1.94098081737418    0.62450058825720    1.36595368584076
H          -2.88163562603365    1.67500033950724    0.74808167079207
O           0.98960004785881    0.18839758406742   -2.94488555372585
H           0.89797567518530   -0.04466033523958   -1.99995927634136
H           0.87612977231298   -0.62585775639764   -3.43873082896684
O          -1.20483864538441    1.63369402747131   -2.37378220647532
H          -0.40862936968120    1.28452816157858   -2.82499362505016
H          -1.77119760570878    0.84199329203449   -2.18914050789189
H          -0.69144359979990    1.86365506505687   -1.04836088746745
N           0.77992797089913   -1.90032860908905    1.66206918124752
H           0.44624064667367   -2.77949382645820    2.04317454390412
H           1.79656178279513   -1.68233891772699    1.87857109589304
H           0.66487932577917   -1.81882682426921    0.63557581105503
H           0.22455581582216   -1.02159308544550    1.96850127483843
