    26
        -50.47304509  Gyration_radius:  2.41264411516 Dipole_moment: 4.410
 S           0.09358175661124    0.96001954700689   -1.02957873789015
O          -0.39899953878171    2.40615557670927   -1.23111954251298
O           1.29364627144627    0.79351156080315   -1.83516890915866
O           0.40431343334294    0.78993402070559    0.39846329543506
O          -0.96252425442378    0.03544636605588   -1.42807786800462
O          -0.18128660202266   -2.34028699677871   -0.55918499048105
H          -0.43245868045725   -2.19722340828931    0.37034148707671
H          -0.58395696303815   -1.57774900145946   -1.02965213267100
O          -2.89295728728882    0.10148929345446    0.39280667177202
H          -2.45598946246638   -0.41403456887921    1.08460287512227
H          -2.31405603353088    0.00326756093929   -0.39144729641124
O          -0.76679440902561   -1.08361719908536    1.80419944476990
H          -0.37447694614436   -1.08491393664992    2.67828090052662
H          -0.35265669665681   -0.32906682098685    1.31972260296190
O           2.73199464344097   -0.04955840053315    1.26958658430200
H           3.34870677032029    0.68397499200278    1.26733746686553
H           1.85474249132949    0.33862015462095    1.03378495230056
O          -2.30150696971339    2.64759956453433    0.49296861633508
H          -2.59787254219728    1.69934351899734    0.57025888494558
H          -1.10356545511702    2.55188716215992   -0.53341353735484
H          -3.03198649192064    3.12159326203143    0.08980161514914
N           2.23663681523106   -1.44060708621539   -0.95551476126828
H           2.89376603897892   -1.98617426865022   -1.50167054814035
H           2.63715275569545   -1.11830289483317   -0.04624209576735
H           1.93592515622571   -0.54322402931532   -1.45749725490681
H           1.32062221016119   -1.96808396834778   -0.77358773299426
