    26
        -50.47298107  Gyration_radius:  2.37647910106 Dipole_moment: 5.766
 S          -0.25685836236222   -1.39567607685779   -0.28551840537888
O          -1.06069047405208   -2.26425502005292   -1.10449889708992
O           0.45495562147817   -2.03354246030709    0.80339204660120
O           0.63521931960684   -0.54224314305136   -1.08755649168452
O          -1.23878646808070   -0.38799979888526    0.45351582276166
O          -1.22986495588140   -0.64909014123148   -3.14322405210848
H          -0.29773737882172   -0.42816232742661   -3.22762180314446
H          -1.24191795333332   -1.38839982753276   -2.48936023729432
O           2.74826020917959   -0.60279671550675    0.46158533624799
H           2.11041856173629   -0.56862866572944   -0.28659582447917
H           2.49630379201465   -1.41749359685516    0.91371567096986
O          -0.07828823394114   -0.59793314210963    2.91888041302405
H           0.14040648868869   -1.25252381622269    2.20871404061599
H          -1.02173055719001   -0.45048195636758    2.81636637966574
O           0.23739322637702    1.99736947045806   -0.51613750968222
H           0.44589643504365    1.09919148587452   -0.86042033739358
H          -0.69293447511944    2.12819500192146   -0.72817597435036
O          -2.29562591181537    1.04130533071906   -1.48143802879880
H          -1.91717285412024    0.48482050481549   -2.22307886491295
H          -3.24839126764588    0.97111856591877   -1.56308633984230
H          -1.69207666533852    0.13413309351884   -0.24967336506687
N           1.40400130666082    1.25477800976838    1.75532092573997
H           1.86909217348946    1.94909669229683    2.32922581327473
H           2.10200519705452    0.58980234496426    1.29519131008512
H           0.76138780319165    0.62975236800474    2.32523090863240
H           0.86673543320702    1.69966380990817    0.96524747362366
