    26
        -50.47298101  Gyration_radius:  2.37632234619 Dipole_moment: 5.765
 S          -0.33333893237058    0.65911720624884   -1.24487090142226
O          -0.02564755378311    0.66520475307833   -2.65079388537297
O          -1.09932232092311    1.78951696139300   -0.76053907622127
O          -0.92066557502233   -0.61845082235627   -0.80875389853444
O           1.03950619684513    0.77499426508075   -0.45245051860978
O           0.19118988750686    2.65729419074013    1.33789404602818
H           1.09964379394643    2.63104173728238    1.02750779011583
H          -0.34446914133628    2.46452945579269    0.52771012373112
O           0.48363757849202   -1.64854162865515    1.16653068421712
H          -0.09230106947578   -1.40564711755568    0.40626312403977
H           1.36049854713728   -1.75375908607720    0.78227699555354
O           0.50389327427527   -1.88052130147014   -2.83157250167802
H           0.31036370478649   -0.92029798145555   -2.95295216457955
H          -0.27598187449405   -2.21997068885976   -2.38285109940365
O          -2.69341564934913    0.31242759450570    0.88246402177543
H          -2.18623433990231   -0.19786393410484    0.21163849699137
H          -2.71989080721123    1.19656121862060    0.49614795379144
O           2.32484794008049   -1.44313805887413   -1.02973530674975
H           3.16149498976523   -1.32133297776675   -1.48196626239492
H           1.57111303891340   -0.02209038306692   -0.68599931310828
H           1.67697189537567   -1.74333885488162   -1.73206683509434
N          -0.59528946483083    0.40276871945948    2.47046299153781
H          -0.17778891296681    1.32324471451690    2.14365073555039
H          -0.68636246001840    0.36155467942829    3.47932006723276
H          -1.54456197883571    0.34018839415271    1.98469403590597
H          -0.02789075660370   -0.40349103517894    2.09799069669651
