    26
        -50.47298099  Gyration_radius:  2.37632656492 Dipole_moment: 5.765
 S          -0.13208690514686    1.30303822600593   -0.61645443449157
O           0.85222703813047    0.98562705790178    0.43125557383837
O          -0.49964327501172   -0.09553028142466   -1.27585308369276
O          -1.38816280931504    1.74930455016321   -0.04873834786283
O           0.42213055193725    2.13840792047496   -1.64911240374431
O          -0.72692042040751    1.12215034996914    2.51862137014626
H           0.02228958548620    1.14985441242691    1.88175079087233
H          -1.39043490241446    1.67257945380560    2.08456301692782
O          -2.96025755370023   -0.33544370474830   -0.11098037191104
H          -2.48537374501055    0.53333249794474   -0.09594083029673
H          -2.78330997591886   -0.68197717838018   -0.98902708860822
O           2.85302133561658    1.21334495348773   -1.48167783819593
H           2.01026239844203    1.69658746803284   -1.65642492788237
H           2.96287891541619    1.27477101657213   -0.52829700522060
O           1.07810710609921   -1.62207511505279    0.72078144400085
H           1.13141661881193   -0.64020432922944    0.67840314654660
H           1.35598160858729   -1.91766704601628   -0.15273883032342
O           1.81168372569255   -1.10840741757421   -2.00908866743402
H           0.34364681882561   -0.48373376464515   -1.60858660747978
H           1.90606062309896   -1.26521661410259   -2.95029999686233
H           2.33906739525302   -0.27888283726529   -1.81697911581074
N          -1.35597827066951   -1.31514290459639    1.74666196422567
H          -2.06051558168945   -1.07417637602861    0.98911630321465
H          -1.14219499778689   -0.38816605782181    2.23250532107328
H          -1.71511679018261   -2.00544636370254    2.39648160119154
H          -0.44877848414620   -1.62692792620128    1.31005899777758
