    26
        -50.46347357  Gyration_radius:  2.63601368641 Dipole_moment: 7.104
 S          -0.42120940663042   -0.46751368547328   -0.42035067947482
O           1.08471622081007   -0.09748650691051   -0.35425360026725
O          -1.18106752115860    0.75069992448770   -0.08906413165942
O          -0.72774774223530   -0.95598318769544   -1.74154820314844
O          -0.60092458313128   -1.47123008992977    0.63399383839365
O           1.52172693424127   -1.05523379542411    2.20616936205630
H           2.10831998235178   -0.59094414657615    1.60213750322300
H           0.78772766867253   -1.35833388163817    1.63257799528530
O           1.06721307806939   -1.04715388941939   -3.70263433163200
H           0.33810733232123   -1.09744182232853   -3.04928577588130
H           1.56714394373284   -1.85858704852899   -3.60590206645574
O           0.28651576785381    0.49277552830343    3.94222079712585
H           0.86593705769136   -0.03920929325744    3.33549895967959
H           0.38954892830194    0.10678093477096    4.81337256777975
O          -1.07286732944263    1.75495972296755   -2.56566400504542
H          -1.32529618882689    0.96601942197647   -3.05449977234036
H          -1.21679855534512    1.52338345859215   -1.62959712195085
O           1.54897856217072    1.27358065600613   -2.41800255003424
H           1.32122097801909    0.50047354749788   -1.16166015163028
H           1.58803985822423    0.54105342249577   -3.06545869865729
H           0.66458966790040    1.68282108799525   -2.55854098315861
N          -1.75362605199767    0.10145678863172    2.29508157026057
H          -1.06056212861562    0.37315494998225    3.04216482400651
H          -2.71179720564893    0.09401029356435    2.62639073081950
H          -1.62342890021273    0.69131505834565    1.41614870620369
H          -1.44446037710903   -0.81336745840262    1.87070523649194
