    26
        -50.46500741  Gyration_radius:  2.58048460287 Dipole_moment: 6.284
 S          -0.45874844392716   -0.60235259781594    0.25733232421474
O          -1.89853113721817   -0.74627972567153    0.07362338188196
O           0.08804563423517   -1.85730257817398    0.97041745415915
O           0.22421871412566   -0.49396421146978   -1.04236633036871
O          -0.14624499386879    0.53965740140271    1.10501406409691
O          -0.46987939080307    1.92950670471494   -1.78184017398359
H          -0.20203802565969    0.99129253466290   -1.63686667305604
H           0.23941240649510    2.45575298290773   -1.40661323919362
O          -1.81905402620788    2.34577015488177    2.01894000594577
H          -1.28772536038834    3.07303761206839    2.34680654661031
H          -1.18732637836749    1.61348009127249    1.82287895199117
O           3.36767798473726   -2.45487600089625    0.11110803059738
H           3.36564429499591   -2.79258055533118    1.00838618209950
H           3.19190754393282   -1.49305096676277    0.18078009817214
O           2.45114135572876    0.09476534789780    0.28434724063852
H           1.91019744476731    0.34327885506363    1.04275247467661
H           1.78902856633013   -0.06633028827328   -0.41109985894384
O           1.03332461154360   -3.10856106904306   -1.03052495036800
H           0.38377199499933   -2.49861118521668    0.24439908338712
H           0.83641339878462   -2.32033103143814   -1.55515307317913
H           1.97586991108491   -3.02124649047571   -0.75564699640189
N          -2.71395139077422    1.64051042559397   -0.38245115873131
H          -2.51887816103442    0.59225570837053   -0.20115680460953
H          -1.94200438381382    1.93030399053103   -1.03429841112784
H          -3.63745697724290    1.79679295582350   -0.77024294160637
H          -2.57481517237755    2.10908195545825    0.54147477303321
