    26
        -50.46051248  Gyration_radius:  2.40438064905 Dipole_moment: 1.282
 S          -0.41770889346171   -0.44698005618196    1.23861952668492
O          -0.65506722191157    0.95466035650290    0.91620982381163
O          -1.47687140647494   -1.30902129601915    0.74825306725464
O           0.88352997925361   -0.87481456014467    0.69622404851292
O          -0.34588084304786   -0.59770070521966    2.77700621885811
O           0.12043265360784   -2.18649021502893   -1.40135873444572
H           0.51534138186350   -1.74673525315266   -0.60524262118772
H          -0.60350617509158   -2.70276556411947   -1.03507106663144
O           2.48624443438046    0.66867917459636   -0.68196384693184
H           1.95798649440475    0.09125945160732   -0.08204796277115
H           2.97267898996397    0.07506364356198   -1.25684444219856
O          -3.02603077289883   -0.32530066613014   -1.08623350347750
H          -3.75191297613259   -0.94447909210201   -1.18038137752786
H          -2.50731175028144   -0.61955819336069   -0.29372921571684
O           0.14418797752101    1.66237247159151   -1.43616148811680
H          -0.25160763631312    1.52696045735912   -0.53193820793708
H           1.09881532764231    1.44556951646694   -1.30901363636673
O          -0.96724488039889   -0.20596094982327   -2.59229040037351
H          -1.87082964892965   -0.20550794662262   -2.12539982862145
H          -0.44385556572314    0.68448092424645   -2.15097413229982
H          -0.48209128151122   -1.02958461715984   -2.21761554691943
N           1.44367850731143    1.30260697481675    2.77429888650969
H           0.36964010493881    0.05974144852409    3.00786069400554
H           2.29524027374873    1.00207357236971    2.31762091342500
H           0.83493079413647    1.69932982649320    2.06372978008881
H           1.67721213342208    2.02210128693547    3.44644302238415
