    26
        -50.46555176  Gyration_radius:  2.45687727405 Dipole_moment: 6.214
 S          -0.28859751833053   -2.17109341248068    0.56315884842800
O           1.14553690158848   -1.99237837182064    0.62550805002888
O          -0.94412376407793   -1.77376824858077    1.80078665918983
O          -0.89678380515420   -1.54343340163075   -0.59991533429797
O          -0.53881353150855   -3.72622665867565    0.39617460792338
H           0.03782796480895   -4.05599990597360    1.07571917542118
O          -0.63272529737210    0.71726456784176    2.20335623895498
H          -0.70825028262629   -0.27253329261153    2.05432622942506
H          -0.68675366575949    0.83340621917900    3.15343181034059
O          -2.30066807682920    0.62343409021638   -0.04466333903246
H          -1.96490530016085   -0.27639536041817   -0.25777864318299
H          -2.00770910318874    0.78070267136941    0.86468948503906
O           0.52578335241663   -0.34426312603072   -2.49777397610145
H          -0.05233574803350    0.94521235426013   -2.04069587813868
H          -0.01926679914849   -0.95288144201644   -1.95543470057976
O           1.18079401497350    1.99027420170866    0.70558676222688
H           1.73087944185758    2.50559934090979    1.29679526224787
H           0.55220429476752    1.48520501580580    1.27103937733868
O           2.46390416475421   -0.12605155415557   -0.72508304544970
H           2.11630510455130   -0.88805351740445   -0.21681501101832
H           1.39638523471758   -0.32261363335708   -2.02721637473207
H           2.18767164031796    0.65218074113518   -0.22199700354402
N          -0.47251517347793    1.80920353820942   -1.50575662957624
H           0.22339392019503    2.11981515988434   -0.81501212585732
H          -1.31269311183665    1.42653021529757   -0.96559888202656
H          -0.73454486744421    2.55686378934524   -2.13683156303084
