    26
        -50.46049367  Gyration_radius:  2.43407154254 Dipole_moment: 2.665
 S           0.23861775477584    0.40303311198383    1.79964015596951
O          -1.06151587903546    0.54873801783189    1.16190397005580
O           0.23623373696769   -0.51736971604903    2.90968641330224
O           1.28666260814053    0.16395415091902    0.82353412515079
O           0.56870004127012    1.82803968237080    2.44865013783817
H           0.50599964058399    1.63894510810362    3.37941667825238
O          -0.73394547892086   -2.39088064105332   -1.12709707224166
H          -0.65251127438852   -2.58986142479634   -0.16779400215924
H           0.14557337410795   -2.06973327704058   -1.40117318695146
O           1.51476487725720   -0.92033617716546   -1.53865420600485
H           1.44847896656314   -0.52651236825812   -0.63506762508640
H           2.42411324302386   -1.20596254727720   -1.63464682164171
O          -0.16577078526345    1.04841274536941   -2.48649527651539
H           0.54409837140466    0.38742654336652   -2.41571621700776
H           0.07094651648108    1.76036687872849   -1.82611580832474
O          -0.50400725388765   -2.62662711844631    1.51752915208439
H          -0.15800705165585   -1.87635029726459    2.04440532895604
H          -1.26980319558156   -2.95064696243014    1.99580916169184
O          -1.87459906592555   -0.16115167530527   -1.12557288667559
H          -1.23838108156102    0.38835146930220   -1.78362930040285
H          -1.51115238457457   -1.15080545372393   -1.17228118111519
H          -1.62215764363615    0.15450634835295   -0.18999473065571
N           0.40470588910667    2.59118917155091   -0.41219877296709
H           0.97627559515499    3.42584960578273   -0.37382026544607
H           0.87895504927047    1.86378890763000    0.11717323788884
H          -0.45227456968378    2.78363592753940    0.09250900199978
