    26
        -50.46009920  Gyration_radius:  2.46648338982 Dipole_moment: 0.821
 S          -0.03384353001946    1.16578393060468    0.63583496044400
O          -0.94055838370251    0.53013916589675    1.57854867368912
O           1.22248385829129    0.43198260827522    0.52592418217735
O          -0.65427616166498    1.32262481037373   -0.68017629535723
O           0.28307651183695    2.60223555702506    1.13563869363103
H           0.70088107646282    2.40399944630284    2.01242069586948
O          -1.11718428196059   -2.02163680179858    1.34807498433848
H          -1.00010597721074   -1.03732692454626    1.47145708242374
H          -2.02395478769844   -2.20740993108551    1.60113776636064
O           0.60763387281776    0.82193188113554   -2.93228442705902
H           0.15570373459942    1.11835644137603   -2.10730662404061
H           1.21034582214897    1.52675969322430   -3.17218868903503
O           1.50669325226988   -1.20875246876893   -1.44892387428747
H           1.51979623574600   -0.63477576498007   -0.63548533892651
H           1.30820312896761   -0.57700030453393   -2.17649961586867
O          -2.06299399864317   -0.44109478295663   -1.99793985344860
H          -1.69718722171143    0.26717258010037   -1.41499399204837
H          -1.78866466768517   -0.19587803283627   -2.88653017755070
O          -0.64887321876953   -2.37073032074746   -1.12705161873108
H           0.35650430794280   -1.94395690977020   -1.28615476561756
H          -0.81134381899363   -2.32821086694925   -0.11453180393455
H          -1.28820089659273   -1.67573683344784   -1.53057934351588
N           1.26159583913789    1.36023842727393    3.20374235994781
H           0.38086727862196    0.90925978726631    3.42241472055203
H           1.82096903845369    1.41736238232257    4.04572947025486
H           1.73243299974483    0.76466322097706    2.52972281978411
