    26
        -50.45363108  Gyration_radius:  2.49780061264 Dipole_moment: 2.036
 S           1.50426689967909    1.02959321786374    0.17946896789909
O           1.25929710241354   -0.12220955987902    1.03595484285532
O           1.89689909548652    0.59347728845181   -1.16038756666007
O           0.41543861186280    1.97587351829627    0.18168551019978
O           2.76225280101228    1.77539955484818    0.77043797860097
H           3.44742355301140    1.13777819112986    0.60313557089486
O          -1.39309728652982   -0.57426976912549    1.25545333323752
H          -0.42890857937865   -0.42540071336991    1.28272553505274
H          -1.74431324948604    0.16004252749429    1.79913715648383
O           0.58943492589830   -2.63539250786529    0.38174675560132
H          -0.26566349270089   -2.61468746598331    0.82381104028389
H           1.00730624098682   -1.78235250575931    0.61160186285960
O           0.17877226882035   -2.68720445136710   -2.19868792589531
H           0.93904189526669   -3.10969824778454   -2.60140011088797
H           0.31886077856933   -2.73369898607946   -1.21275374151960
O          -1.61574603086205    0.74565171376441   -0.99989199058631
H          -1.00999348985652    1.42556365049587   -0.63883633920272
H          -1.72175639449397    0.11424112727951   -0.23821547439185
O           0.01836153970046   -0.18527199000911   -2.61322925989106
H           0.03903331160161   -1.20940346161181   -2.51896392328093
H          -0.79400583482153    0.18048744169622   -2.00780112656413
H           0.84915330272010    0.16517662011631   -2.10620024584912
N          -1.63901461976837    1.92704587299828    2.32413219997095
H          -0.87530348134898    2.14929206232185    1.68758922494133
H          -1.32888576670323    2.15469707176436    3.26068664025523
H          -2.40885410107622    2.54526980030053    2.09880109556025
