    26
        -50.46408821  Gyration_radius:  2.39951798011 Dipole_moment: 2.440
 S           0.75482919080222    0.69642868189775    1.00887787249717
O           1.36098762574330   -0.12441939573571   -0.05118829383349
O          -0.55017163596668    1.19854952843110    0.55388188494565
O           0.64835402953826   -0.02568109537232    2.25601101897931
O           1.67398810701097    1.91722560577334    1.23058376748421
H           1.75300485969079    2.32304236314598    0.31635804207001
O           0.32508598741523   -2.52109102667466   -0.24292921142819
H           0.87762723779119   -1.70486636322394   -0.16143278417510
H          -0.05241012964677   -2.65645765251533    0.64582706375303
O          -0.21515986352245    0.65176035791662   -1.94754544027405
H           0.59374058702084    0.27395380548387   -1.53563614405486
H          -0.59947440855386    1.10926656986642   -1.16735391219810
O          -1.55982964779568   -1.47537025926170   -1.51148602338166
H          -0.77514036372964   -2.04193314591552   -1.07427616272778
H          -1.09144628200186   -0.63601679352312   -1.87604467482551
O          -0.84280913049282   -2.12223356047748    2.17829636003457
H          -0.86570529899767   -2.54263008280057    3.03905675313517
H          -0.25396270677285   -1.32378563097920    2.27769396180476
O          -2.46636157052959   -0.58086308622052    0.63937681069621
H          -2.13104210039427   -1.21221380805010    1.30266722282773
H          -1.86072073324336    0.19866214618399    0.70415574883167
H          -2.08893054312307   -1.12763440159868   -0.65678593612200
N           1.82064603129320    2.85219353821222   -1.22897424794541
H           2.72840514775599    2.60937052012914   -1.60422668785415
H           1.70489457027953    3.85532357208201   -1.29120116435030
H           1.11160106042218    2.40941960314492   -1.80370581407078
