    26
        -50.45462861  Gyration_radius:  2.52327133246 Dipole_moment: 3.165
 S           1.98280561440781    1.39462019615503    0.82810668814702
O           2.38912458403783    0.22687580452895    1.58589652788001
O           2.12679965907866    1.16927661527744   -0.61035456171533
O           0.66538485879158    1.88579134700580    1.16955891342116
O           3.00232497016178    2.54402429308876    1.19559763436817
H           3.83023534114004    2.10024413282115    1.04849131692834
O          -0.24568788953878   -1.64085122003796   -1.61913500181282
H           0.30832113778622   -1.79246877180123   -0.82759366186177
H          -1.18881023678722   -1.65930847730184   -1.29623031719620
O          -1.49489752186398    1.75660426752771   -0.38004004407951
H          -0.79494012036339    2.18592495075375    0.14825301159950
H          -1.73322069630521    0.99271197301787    0.17166775825580
O          -1.04219778143000   -0.21769988688254    1.52210373424267
H          -0.45630441557025    0.54149721073844    1.68440470208558
H          -0.43466886214535   -0.95958051208460    1.38589645687971
O           1.08429029411459   -1.82913195613172    0.73451589183051
H           1.63020102149590   -1.05339353262024    1.03190975452181
H           1.56684660313270   -2.60999432631221    1.01018826040995
O           0.13599509215173    0.77504320985551   -2.06310429138880
H          -0.00935293491996   -0.28744967743710   -1.96596158355445
H          -0.60617000842600    1.21352421504072   -1.49807197708758
H           1.00655861183735    0.97338177392181   -1.53686114059682
N          -2.70682808447115   -1.46924784013753   -0.57686703760374
H          -2.47442001573867   -1.14091089210070    0.35644648215256
H          -3.24056469031447   -2.32366021816153   -0.48465918176801
H          -3.30082453026692   -0.77582267873255   -1.01415834405745
