    26
        -50.45780576  Gyration_radius:  2.41862747399 Dipole_moment: 3.165
 S           1.16564544051298   -1.28259888914607    0.44491208182050
O           2.10387587991824   -0.63811745939935   -0.46505585871681
O           1.03026552318402   -0.55511559694478    1.69226410471927
O          -0.11306006615742   -1.55681469696574   -0.18296459967584
O           1.79686778906532   -2.68802473071798    0.78439977702740
H           2.69906266129778   -2.44821924775332    0.96563394362965
O          -1.64165662205390    0.62887757874111    0.06692247063350
H          -1.16340418758486   -0.21359422421643   -0.06772885767677
H          -2.02886639698341    0.51298039867951    0.95954593065817
O          -0.22310298947008   -1.29476537570421   -2.81251618844902
H          -0.09625085207092   -1.48461973466231   -1.85880548722730
H          -0.89775184707710   -1.90174239256126   -3.12099748708982
O          -0.61662400305105    1.29727667485553   -2.41322497768135
H          -0.50146645204086    0.37365475284409   -2.73968319221817
H          -1.22336123834631    1.23333701696013   -1.65748095840856
O           0.49152629920090    1.94865810472164    1.01012063672367
H          -0.42124005456274    1.71430743893971    0.72848661030044
H           0.81581295298986    1.12541683991700    1.43395903210053
O           1.55924550877789    1.69380747517643   -1.23232110725623
H           0.68768478070010    1.59246516174161   -1.82862939442071
H           1.19046512636685    1.97864226863984   -0.28668243226877
H           1.88624515912110    0.74154727886996   -1.04200950863362
N          -1.74017773715140   -0.07966808301191    2.67878640412977
H          -1.73493983390104    0.56936338455484    3.45636906769513
H          -0.77513060644559   -0.36316856861020    2.51396926217387
H          -2.24966424423871   -0.90388535495188    2.97273072811420
