    26
        -50.45490062  Gyration_radius:  2.5781457458 Dipole_moment: 1.536
 S          -0.02995794569778    0.07212581085969    1.11120583469929
O           0.72508732293659   -0.20563172173733   -0.18596108411473
O          -0.41055385474419    1.46472811410730    1.15479586224401
O          -1.14200408879449   -0.83078410953117    1.24652788211188
O           1.00346870246284   -0.23891056789993    2.18827936582639
H           1.90771616528628    0.12568704096666    1.85361300155659
O          -0.88490721982196   -3.24108690827429    0.18540996164109
H          -1.49858612713110   -3.80011512340819    0.66580658496478
H          -0.92179342851023   -2.36436037678874    0.62284317593913
O          -1.43805616056432   -2.52876236142256   -2.32879573812645
H          -0.81930609111754   -2.99273417900960   -2.89511892779593
H          -1.26102433302171   -2.84515766869308   -1.41275137022893
O           3.08150791650581    0.68729084587235    1.10106502820761
H           2.98496205965441    0.22382788501867    0.26358429726563
H           2.77467648808596    1.62853215616630    0.93001453352105
O          -2.60458076682196    0.98566711231701   -0.32350299649031
H          -1.93583631148764    1.41674994853144    0.23631778693849
H          -2.86430133844203    0.20259454683596    0.17199140800592
O          -0.85222407776741    0.02270024491456   -2.05387470452560
H          -1.61660267857433    0.44507903430457   -1.58746209641788
H           0.06147175055924   -0.09643574923940   -1.06381004901260
H          -1.12857835580508   -0.91310171552003   -2.24998009362154
N           1.91452991187306    3.00652977716589    0.62075125091348
H           1.90120841938923    3.37689526229957   -0.32125874994885
H           2.06337829362885    3.78053783818155    1.25564724992552
H           0.99030573792459    2.61813486398654    0.81466260652869
