    26
        -50.45289439  Gyration_radius:  2.64769400448 Dipole_moment: 2.993
 S           0.61232425529549    0.19886478436825   -0.50307686821746
O           0.93427107232185    1.22830301670538   -1.46124784998844
O           1.48665007226621   -0.93507837190508   -0.47926520693224
O           0.56264915528972    0.83800722257832    0.89814211142630
O          -0.81262902532202   -0.28626482827797   -0.74814567662468
O           0.50180718807743   -2.26829977180719    3.22555360923722
H          -0.22333866423614   -1.85671026113878    3.69804586919918
H           0.13915897638641   -2.56686445963415    2.34722595477459
O          -0.41435338800064    3.21831047404785   -0.21803745719182
H          -0.24802679467199    2.99192616821523    0.70061440237797
H           0.24311295883137    2.71751224346834   -0.73054381214414
O          -0.72222997062912    1.61282754303543   -3.57768288183223
H           0.01236415405846    1.54795017319154   -2.94106172163754
H          -0.57774559558881    0.93092591916423   -4.23500010140800
O          -2.22744970932407    1.65593418588386   -1.36254579630616
H          -1.95590247945562    1.73697837298589   -2.30089832929558
H          -1.47365330236441    0.52544764316557   -0.98369129153203
H          -1.75695936483555    2.39078739359570   -0.90045405987133
O           2.19181088379753   -0.56555550766203    2.15393669288539
H           1.64386092146398   -1.21399845158686    2.67518009787796
H           2.47606925750083   -1.03656760482183    1.36019160800190
H           1.23730392768632    0.31902099216062    1.50218522369142
N          -0.35927782526704   -2.78911750097245    0.74830798098053
H          -0.35924263669684   -3.74346476279715    0.40901982154659
H           0.34167992539529   -2.27426725578157    0.21821994817847
H          -1.25225397196981   -2.37660734617066    0.50502773276886
