    26
        -50.46797326  Gyration_radius:  2.47252604598 Dipole_moment: 6.431
 S           0.62488368215569    0.82093945230669   -0.47028594980225
O           0.59428688400845    1.07687458527389    0.95756746716164
O           0.97388105564064   -0.56787999896960   -0.77087846114957
O          -0.65987600504906    1.14793065737057   -1.10305535433495
O           1.67805775157235    1.74015380543083   -1.12442924988026
H           2.39917979022128    1.79148128163178   -0.42657046534157
O          -0.81614693639274   -2.34198966232096    0.02379557721634
H          -1.75117256286508   -1.62806644469697   -0.83110207009502
H          -0.00006077752126   -1.88962885318460   -0.28279907349987
O           3.23268846346261    1.56764938788766    0.89492156573579
H           2.41054425623943    1.49438242118200    1.40341034326506
H           3.53748277895967    0.64472120206426    0.76887422838577
O          -2.80731312873722    1.20617826134373    0.48701354774484
H          -2.96480326126464    2.01680186867709    0.97297498929480
H          -1.98765342750560    1.35464045238939   -0.03057159846856
O           3.41576532789020   -1.00368868788614    0.15804978160014
H           2.49498566134132   -0.93380106883175   -0.17368180215611
H           3.94469681619436   -1.30863788557824   -0.58084407653076
O          -1.24879991925254   -0.59750645792963    1.93536355871259
H          -2.01081319459620   -0.07136222960483    1.64843951603889
H          -0.99692078549035   -1.90972630316208    0.89770240727189
H          -0.48004790923571   -0.02348437147432    1.75006870377170
N          -2.30069841770613   -0.85422176592201   -1.41640626061170
H          -1.60156664515854   -0.05488449598101   -1.48042106605138
H          -3.08927692359160   -0.50009575008622   -0.87459100759461
H          -2.59130256333741   -1.17677939992633   -2.33254524069940
