    26
        -50.46185097  Gyration_radius:  2.40106122097 Dipole_moment: 4.303
 S          -1.08540630198701    1.37733714028211   -0.49015336293304
O           0.34024991420290    1.62164928916672   -0.69346795734158
O          -1.53337756041109    0.24578832623878   -1.29102030327039
O          -1.44222602309258    1.25294318663072    0.90146583697203
O          -1.82965586643669    2.65202945902234   -1.04680937435621
H          -1.50697632045202    2.68612351801295   -1.94048095403910
O           0.57681909036781   -1.50060192426532    1.49434223718299
H          -0.39149176892478   -1.62133726292536    1.19242140766274
H           1.10665455754979   -1.21517513190267    0.61620633537313
O           1.62768346767949   -0.68907190483883   -0.61879154981140
H           1.19153260788029   -1.25045918688919   -1.31602859717099
H           1.20911670253683    0.19504425757719   -0.71747641090123
O          -1.84723634947378   -1.46791458608583    0.66402765210422
H          -1.79121193849683   -0.89170379447451   -0.13392822961240
H          -2.31074128846505   -0.92812923213666    1.31157579869954
O           2.22012863741112    1.94859136118332    1.19713268664332
H           2.92114220423481    1.39253679180777    0.84931688596848
H           1.55767211719712    2.01923785327609    0.48302907360081
O           0.41858750245779    0.67980112424374    2.68054829280631
H           0.56032381946307   -0.61765436329569    2.10694964337301
H           1.17843847044330    1.21135681662196    2.34669308480214
H          -0.35457722760650    1.01271527068744    2.17334678917532
N           0.03037000700974   -1.97073950396479   -2.31212555559523
H          -0.66082720343114   -1.23350524800835   -2.18248899260529
H          -0.37791195724456   -2.83135106985743   -1.96928959665759
H           0.19292071760404   -2.07751121610012   -3.30499484003769
