    26
        -50.46185097  Gyration_radius:  2.40092172588 Dipole_moment: 4.297
 S          -0.70665001666405    1.55969043483002    0.62063274958684
O           0.33991561558681    1.21851771545923    1.57502938236355
O          -0.16602576565330    1.63216004730276   -0.73436390720811
O          -1.85765830237333    0.69695425234228    0.72187263563687
O          -1.18892772310634    3.01899233757820    0.97600724445491
H          -0.39342364315899    3.52139953781093    0.83958692982082
O           1.41564546046343   -0.45004440634368   -1.14152801819786
H           0.89197277668706    0.37584104206283   -1.04019158686447
H           2.09275005325670   -0.40699150846034   -0.41263220664801
O          -0.19526216670663   -2.16342720646483   -0.30643974363507
H           0.53345248017820   -1.50777637249011   -0.72172092602843
H          -0.24067195615824   -1.91636485518630    0.68357329709065
O          -1.14583828270005    0.45218239295359   -2.93926832638713
H          -0.34036586707737    0.10190963293140   -3.32670874965971
H          -0.85816440377379    1.04238991955248   -2.21624089695083
O          -0.42215150415465   -1.23709194962890    2.07219067788702
H          -1.36954728527724   -1.11791230915547    2.18926285961777
H          -0.07399606247085   -0.31963005706994    1.97742498915941
O          -2.29624477618183   -1.12252083444365   -1.13617351512088
H          -1.13274006927662   -1.82823878558357   -0.71170400386294
H          -2.34435277645624   -0.42933019400869   -0.44108914745755
H          -2.03731682071112   -0.63396086119525   -1.95211445358300
N           2.82606012832154   -0.19243715245889    1.09573192372737
H           2.10329476177566    0.43035541491141    1.45317967942849
H           3.71660003663441    0.28083512129622    1.17720204473171
H           2.84964608899970   -1.00550135653804    1.69848107810126
