    26
        -50.46185104  Gyration_radius:  2.40098033526 Dipole_moment: 4.303
 S           1.53644573613236    0.47333874572661    0.85552372817748
O           1.46301152179865    0.88912003696708   -0.54282804266958
O           0.47106602036560    1.09196152082600    1.63326568377540
O           1.58488408876631   -0.95896809357341    1.01474988663778
O           2.89706240061125    1.04738036431890    1.40992335551418
H           2.80145794829122    1.97537378536129    1.22653212674254
O          -1.05435935205930    0.76142805905052   -1.34833488825405
H          -1.55933767894738    1.33446124147108   -0.70933548231733
H          -0.11136175227482    0.88946552995187   -1.10140684911804
O           1.52179290500704   -0.69064413260804   -2.71385427646223
H           0.80991724237076   -0.30816677734740   -3.23204792908445
H           1.67861407460950   -0.06846011682076   -1.97749403057668
O          -1.48101391109766   -1.54312180752447   -0.49136736552588
H          -1.37343631925173   -0.57797201859666   -0.92788477864822
H          -1.41818092518166   -1.38706546455550    0.51606816180618
O          -1.00193867927878   -1.04591774028549    1.97652329926533
H          -0.50585702481551   -0.19523035177862    1.93013129662556
H          -0.33463413179520   -1.69388076957197    2.22214817868032
O           0.76095859919189   -2.52014922897105   -0.94480333305894
H           1.21173379144389   -2.09096930791560   -0.18418422354502
H          -0.57394800246420   -2.06275999354430   -0.74108898162276
H           1.09840744825621   -2.03666560342232   -1.73458070355741
N          -2.08894168830550    2.08821924811105    0.70822515759681
H          -2.29705075548285    3.07822317578120    0.72198208153383
H          -1.21634310144482    1.94154245028899    1.21331425025380
H          -2.81894846446031    1.60945723866021    1.22082364783772
