    26
        -50.45289442  Gyration_radius:  2.6478680484 Dipole_moment: 2.986
 S          -0.20394538098641    0.79046276381066    0.01367094394052
O          -1.48642882712853    0.84887775795421   -0.62094649055534
O           0.26708083488689    2.01839434907437    0.60693347306406
O          -0.23288154194744   -0.30162285112181    1.07775357767942
O           0.84921350256646    0.30652413495699   -1.00183755369891
O           0.44785873482234    2.18570282242725    3.31067827921488
H           0.35833531895774    2.32397496381374    2.35050897213819
H          -0.42164373329243    2.31923442428439    3.69024291797718
O           2.89066376978205    1.35433683130655    0.61049666487042
H           2.94711282969763    0.86912131165515   -0.21664266752657
H           2.05559841934871    1.85041962169620    0.56232148072334
O          -1.06617688414937   -2.45707473668757   -2.93910117928134
H          -1.50299226986593   -2.38194526111781   -2.04718403429709
H          -0.29924818334870   -3.02016187307103   -2.82424900263088
O           1.74073024463528   -0.03519501284576    2.55580772334502
H           1.40280968471422    0.69729692501098    3.11270635857790
H           0.62272834280461   -0.25008077225628    1.72351170906048
H           2.38464650975784    0.39279543064196    1.94167226148425
O          -0.50555319357028    0.10584594958824   -3.08156920536954
H          -0.71319317839926   -0.86398489937250   -3.17525287652211
H          -1.28463890275703    0.50566448540303   -2.67432348631039
H           0.37130259405998    0.20811918169193   -1.92440792531602
N          -2.07124849099726   -1.97904808819191   -0.50787948206592
H          -1.48915132233660   -2.27451095771877    0.26720105295195
H          -3.02376504892206   -2.25204989459132   -0.29774841721544
H          -2.03721379833380   -0.96109661635203   -0.51236308422367
