    26
        -50.46009918  Gyration_radius:  2.46634965539 Dipole_moment: 0.823
 S           0.54164569995075    0.65614785410537    1.02015945082418
O           1.37531061011668   -0.18992978762031    0.17271134637662
O           0.14947959884182    1.87615755731018    0.33271611944271
O          -0.62485099583032   -0.08642180647701    1.49895045872837
O           1.35968970607472    1.03443772325468    2.28563018158433
H           2.12145101081802    1.51754653084579    1.87469845717577
O          -0.85008128421750   -2.69763166380415    1.28178768910622
H          -0.73671409618094   -1.73621647727694    1.46984924925148
H          -0.32863686313841   -3.15948741303505    1.93924536178999
O           0.24654494854486   -2.14133434779768   -1.08831870812661
H          -0.16608423483752   -2.58062480268810   -0.31068247302368
H           0.79847693652090   -1.41768545337477   -0.68448659742469
O          -0.63887993402126    1.54293177356984   -2.08888649385999
H          -1.29590651223114    2.23208349304242   -2.20783975711195
H          -0.27641812534715    1.67338923110289   -1.16727955418203
O          -2.84077768361431   -0.57537487778306    0.20237196728778
H          -2.08798963656589   -0.22545511707970    0.73732138207490
H          -3.02899091504581   -1.44089078533776    0.57697096113207
O          -1.61206986116860   -0.80565371760383   -2.01587938601970
H          -1.21092683748243    0.12974053518499   -2.14725944410167
H          -0.77321148292412   -1.44723453430925   -1.69308698747932
H          -2.20873059650876   -0.72682619101472   -1.18408450166531
N           2.99145767618868    2.10532354395219    0.56278806821112
H           3.90485188921796    2.50655759614496    0.38993856131173
H           2.28234847335229    2.72544151168705    0.18920563756994
H           2.90901253949672    1.23100960501580    0.05345898112283
