    26
        -50.45643274  Gyration_radius:  2.40090263328 Dipole_moment: 3.630
 S           1.01054587380963   -0.15881339258855    0.88817744770597
O          -0.36469151112401   -0.48343616998631    1.25500677057373
O           1.10903764767477    0.08336396177004   -0.55949901411200
O           1.49846037954005    1.00746733278393    1.62122511233794
O           1.90186207783779   -1.35451184620043    1.23126129767416
H           1.33517333909204   -2.15636399312751    0.88955228057770
O          -1.97991033741174   -0.03418644196161   -0.89266272440885
H          -1.67192914311479   -0.48607957338476   -1.68288693510094
H          -1.38595476024300   -0.33594527904443   -0.18506616943771
O           0.63921210228209    2.52141313260231   -1.32168074437571
H           0.79014658364899    1.55820313963981   -1.12900721613150
H           1.48141985680137    2.86844876056930   -1.62180408670765
O          -2.02339004026993    1.58719137701531    1.36430165964629
H          -2.40391373956673    1.39628839230997    0.49350273893031
H          -1.51819041826328    0.77111521028140    1.57581084048202
O           0.07545165446229   -1.71580902236256   -2.18425580999334
H           0.60759193411033   -1.74104240480482   -2.98066540497775
H           0.47537985625535   -1.02193285477560   -1.61200257044929
O           0.05653609189364    2.95728166001360    1.10689620184892
H           0.22732656763345    2.95670632387346    0.09380424273110
H          -0.89249731585104    2.51385209636171    1.24364130233795
H           0.71836442480395    2.20453890043785    1.43959516148614
N           0.29052504128355   -3.11537944172216    0.33538757880986
H          -0.53445010620991   -2.81691016737406    0.84141984376596
H           0.40608073516260   -4.11468446573639    0.43920121751726
H           0.15181320576546   -2.89077523458366   -0.64925301073188
