    26
        -50.45325140  Gyration_radius:  2.59649216317 Dipole_moment: 1.559
 S          -0.37040599626673   -0.95833450787413   -0.25684108218673
O           0.54854914536519    0.08956376119917    0.38527273334684
O          -1.65386683469291   -0.18015856030357   -0.62188217183821
O           0.26605680665497   -1.44079029278017   -1.44023878945967
O          -0.74265869592344   -1.93910161087376    0.72447048716106
O           0.23719932373817   -2.04066474165540    3.21488258564963
H          -0.14306310512443   -2.16803379678543    2.32390932486405
H           1.05286564637561   -2.54249136546242    3.23780786959978
O          -2.72168531468924   -0.29700053452530    1.91571037773394
H          -2.62278361379738   -1.23801838289490    2.08880672675606
H          -2.57735882762744   -0.19628671741257    0.96410343396938
O           1.12387612737178    0.43161510306809   -3.18710256600908
H           0.95288544983946   -0.40590271319026   -2.72130323952094
H           1.78904046092626    0.89837577115362   -2.62975975964839
O          -1.10874010068428    1.43688607518204   -2.44803001162578
H          -0.20851537629156    1.11923746145295   -2.80281639966886
H          -1.73476674120935    1.32347953327053   -3.16662644587550
H          -1.43517318851006    0.51068143223209   -1.36959301838293
O          -0.31127608203438    0.52114453598553    2.67326366830597
H          -0.01913414892570   -0.29594996753782    3.12943476655950
H           0.20214398467033    0.32663088279470    1.36401622759408
H          -1.28270081075947    0.40071542353240    2.54441794946779
N           2.61564266136979    1.58705933107543   -1.23190980141282
H           2.03799659973988    1.13465580199623   -0.52953695900806
H           2.52644046439561    2.58744757050260   -1.10683480655906
H           3.57943219607466    1.33524052785493   -1.05362109980126
