    26
        -50.45510221  Gyration_radius:  2.47453749818 Dipole_moment: 3.186
 S           1.25489930722421   -0.32650061435672    0.58856429639290
O           1.53964122463675   -0.40957221226082   -0.83801770570169
O           0.67252581505837    0.96730017042516    0.93231636315024
O           0.38854010615708   -1.42245246376684    1.01986622169626
O           2.58605016942359   -0.48282890219593    1.37065966351011
H           3.11099411591119    0.28458432386585    1.02406911650869
O          -0.60002258931429   -1.06647469055987   -2.12647182292976
H           0.23657769594358   -0.87657732971098   -1.62231338286505
H          -0.32299957794362   -1.40645733921481   -2.97880355289509
O          -2.62718483437193   -2.04024653420326   -0.67367493965946
H          -2.48124020276469   -2.98818895392458   -0.65291926300990
H          -1.91690934615562   -1.66410986968589   -1.24045000124013
O          -1.13622472159560    1.49990963206695   -1.07765988254599
H          -1.15117324708901    0.72810539643423   -1.65751988421682
H          -0.32329937097601    1.41282505989415   -0.55324894502173
O          -1.89705996802340    1.39489802907500    1.49064914039209
H          -2.02790445508048    1.60307148404471    0.54325952375735
H          -0.92124681352735    1.42066452760003    1.57683594970955
O          -1.99143296434095   -1.09492956622776    1.61863527250540
H          -2.38608626189913   -1.44431266046691    0.74529070424937
H          -0.96285794975137   -1.26188497270570    1.48299026448560
H          -2.07335790017976   -0.03293668595456    1.61857747025043
N           3.33852266959981    1.62733247123968    0.03744219676437
H           4.12577657037649    2.19483892962205   -0.25065927753619
H           2.60970517895916    2.23295037519938    0.39558243320733
H           2.95576735971916    1.15099237577092   -0.77299993895841
