    26
        -50.45510223  Gyration_radius:  2.47457204436 Dipole_moment: 3.185
 S           0.86728475542913    0.99044716961908    0.54250689988754
O           1.75112878534642    0.24065530416649   -0.34047671823402
O          -0.31543370781630    1.45852501200373   -0.17391889592015
O           0.49184851779488    0.19814739340709    1.71257109670052
O           1.63339887910522    2.22976137065092    1.07662324943545
H           1.85204143833976    2.70610810451197    0.23403923509338
O           0.93927401313248   -2.20374123210495   -0.53130980827733
H           1.28637926026109   -1.27969477722091   -0.40577947156934
H           1.68075555204890   -2.72375673574476   -0.84536324339980
O          -2.75616702475115    0.41283527555824    0.04254886842842
H          -2.04374137050922    1.08499467028029    0.01145573261008
H          -2.53683655888557   -0.15857373284490   -0.72121020237439
O          -1.08481160106147   -0.66209055991068   -1.75708118420128
H          -0.64121409683937    0.12779889142363   -1.40670445089452
H          -0.49803803407163   -1.39969066280867   -1.54797638992038
O          -0.84386362413494   -3.02364994087753    1.28979949329727
H          -0.20957103543963   -2.75568539768342    0.58757762833318
H          -0.31546595397570   -3.37095412714199    2.01131806805358
O          -1.77372576450175   -0.75254156554377    2.01778110872741
H          -0.83707019558634   -0.27717940619203    1.98494864031300
H          -2.31197610317321   -0.29758733132762    1.21919193813249
H          -1.54327580802597   -1.70742093172581    1.74273079655319
N           1.86220068394650    2.87337916833826   -1.43929980917573
H           2.13051149310126    1.90432897675537   -1.57786427284984
H           2.34999906783203    3.45332769227904   -2.11054170076788
H           0.86636845244665    2.93225736213418   -1.61556661798946
