    26
        -50.47039590  Gyration_radius:  2.4152832805 Dipole_moment: 4.727
 S           1.90004345986390   -0.71776172527002    0.01964584616447
O           1.75489749822782    0.02197399179196   -1.23718672594854
O           1.84340685093991    0.18667534518591    1.15682471721299
O           0.99878346097613   -1.83860834292473    0.11453156424617
O           3.36193055873501   -1.32369936944295    0.00189277341008
H           3.90895030076020   -0.54627643320887    0.02987779688072
O          -0.18339560078136   -1.41620912902768   -2.26470329892368
H           0.55394776872523   -0.79020982262454   -2.11071016295786
H           0.02175635838412   -2.12780438561122   -1.64405022839525
O           1.14153520372175    2.37119594189714   -0.30937969935190
H           1.54864543585980    2.16658797788336    0.54237990870887
H           1.38533449322483    1.58517617585800   -0.85059917073044
O          -0.50917592439345    0.38242883230675    2.39958184629233
H          -1.07132237250798    1.24097059433646    1.30323484565838
H           0.42236355449717    0.28143691939921    2.10909478819531
O          -2.24965073809037   -0.28901262745454   -1.16207012865694
H          -2.98164917563410   -0.34760975131257   -1.77711545560155
H          -1.46497901112491   -0.70513125908685   -1.62838347512732
O          -1.47151751658420   -1.76127588983596    1.18225266182856
H          -0.93211784827041   -0.48392972461477    2.18909717370173
H          -1.94208063801995   -1.39189401602291    0.42301023276170
H          -0.57600145334290   -1.97037377143047    0.85749851006004
N          -1.33236274092933    1.76356810504448    0.37933297973754
H          -1.97655590365219    2.52679223674162    0.55182641122023
H          -1.74455981254117    1.06637539016276   -0.27180931651111
H          -0.40622621805586    2.11661474726409   -0.00407439387143
