    26
        -50.45705160  Gyration_radius:  2.47210831749 Dipole_moment: 1.719
 S           1.35937437095894   -0.02176752383809   -0.73114190873250
O          -0.04265128749366    0.09594414658368   -1.24458574340423
O           1.34055078389049    0.06134390885965    0.71707495254267
O           1.96050705101642   -1.23650899979572   -1.23541622128104
O           2.12568811714685    1.18334133065198   -1.29699208749065
H           1.83847471401407    1.95617128130833   -0.68581424206273
O          -1.92930112129826   -1.68886537765645    1.55842550425308
H          -1.63199163137489   -0.74511146975498    1.75267350015798
H          -1.36409713205655   -2.25384147921004    2.08964498393761
O           0.73944339859860   -3.43746093201533   -0.74394367543419
H           1.32453175498094   -2.63581264405092   -0.86097781973134
H           0.95829599573696   -4.02577418061089   -1.46952791347404
O          -1.45157016333279    2.14379063703879   -0.39678937395791
H          -0.92067414212135    1.41407799981232   -0.79540364459736
H          -2.24594722275549    2.21850440651287   -0.92741601981450
O          -0.93103515287645    0.66455635076826    1.88487625315031
H          -0.03647411294929    0.43968076948482    1.53744213589559
H          -1.29923391914322    1.28812508846249    1.23844167538297
O          -1.32884820002446   -1.98108821716190   -0.86892524692848
H          -0.81733664521868   -1.07182146652803   -1.08906999684853
H          -0.57570263957390   -2.68226278073435   -0.84876866531705
H          -1.65705944973530   -1.88311245942638    0.12240890740477
N           1.26336517101343    2.93126488637834    0.37475628712826
H           1.37791181540495    2.38712187807385    1.22135568494725
H           0.26971835910431    3.03362530197617    0.19253224264696
H           1.67406124807979    3.84587957488375    0.50514043162902
