    26
        -50.46265766  Gyration_radius:  2.42513857926 Dipole_moment: 4.332
 S           0.11646738699573    0.70258957428148    1.32632902650891
O          -1.25782419619973    0.30837140428648    1.52699872250795
O           0.93663407527461   -0.44427546995375    0.88055305559829
O           0.26182952695647    1.81485156264904    0.40787436872534
O           0.71396729310391    1.16086124891965    2.69507737467639
H           0.68972593427075    0.34745677081866    3.22983644680337
O           0.89843001892459   -1.43712995278478    3.30208652422589
H           1.76110057367084   -1.74315142434473    3.59051980533172
H           0.95644300712266   -1.30045113948517    2.33527991007143
O           1.21932452771216   -0.73888665986507   -1.62675731503640
H           1.20318067263080   -0.67208508410550   -0.61429740948946
H           1.32252538190240    0.28380274021342   -1.95503210620903
O          -1.90518727344096    1.24271698928500   -1.06537411026514
H          -2.55979494853439    1.02264929305452   -0.39632254908929
H          -1.13927484672134    1.56102961009343   -0.55082167179835
O          -1.63295338664868   -2.08479441048134    0.48194991018058
H          -1.58028947792298   -1.21138356727709    0.92869474602807
H          -1.03589151364070   -2.65936303323596    0.96327670487113
O          -1.20095683140965   -1.16713634137229   -1.96892579465512
H           0.20286627123748   -1.00120218265000   -1.86482781054550
H          -1.44124865987141   -1.67279668922923   -1.15713917469031
H          -1.55289500645675   -0.26069948285282   -1.80211090748430
N           1.29375163503684    1.72605314373647   -2.18032237212735
H           0.55385821583947    2.01013180572499   -2.81025189386003
H           2.14827006156153    2.19903763892830   -2.44220964971033
H           1.02794157860881    2.01380362564873   -1.23408382056638
