    26
        -50.46265763  Gyration_radius:  2.42511746847 Dipole_moment: 4.330
 S           0.89930592596455    0.05898908845072   -1.20608170883381
O           1.85517478883320    0.68041900630953   -0.32034365400405
O           0.34076265289683   -1.17049593966626   -0.60368118434016
O          -0.16785807850523    0.95316718982888   -1.61042866139693
O           1.63666399426499   -0.38886605307594   -2.50852797865987
H           2.26110125706005   -1.06366689854118   -2.18749808311519
O           1.67051856211746   -0.42594418220368    2.06740198175381
H           1.83570351317884    0.01888592329827    1.20711888236489
H           1.88190005190148   -1.34998961231651    1.92687113615098
O          -0.16030556874027    2.42547972824015    0.63161107158987
H           0.77876170285117    2.55340892650813    0.79402695423637
H          -0.19165948251402    1.98553814387620   -0.23916316279173
O          -1.83055468716744   -0.92245638054600    0.69129426373934
H          -0.99356608020930   -1.12540995261741    0.15459079434885
H          -2.36659428547156   -0.21151267300477    0.08166198263416
O           2.57976022373089   -2.44085942756375   -1.07668040040446
H           1.71721578678018   -2.13991371423446   -0.72727375045931
H           2.43847078105098   -3.31457291802086   -1.44772422348581
O          -0.77989932086104    0.53138267394575    2.40620455313000
H           0.12316903217806    0.14338257327179    2.48560834404439
H          -0.64586180483931    1.34774648326797    1.86880610361614
H          -1.45092932873605   -0.34402962796585    1.51578054119713
N          -2.83499614009047    0.84936301734964   -0.80521970582004
H          -3.59079670498768    0.65340632749803   -1.44777435139723
H          -1.96997861530259    0.98486065310957   -1.33646033972934
H          -3.03550817537933    1.71168762480248   -0.31411941436469
