    26
        -50.46265757  Gyration_radius:  2.42510239498 Dipole_moment: 4.327
 S          -0.78283066627395    0.15693255776165   -1.27670958028952
O           0.67992113075051    0.32028887723041   -1.13461860314211
O          -1.17199851328205   -1.21808360272090   -1.07115825925362
O          -1.48138246261367    1.08278114657379   -0.40688538429284
O          -1.12701503370305    0.56324858899711   -2.74545859619111
H          -0.55056548879962   -0.01603888829028   -3.27488180858541
O           1.05063551771797   -0.81256341791168   -3.46491786077629
H           1.68630784029046   -0.34202456067990   -4.00854232665656
H           1.14369825820855   -0.46359206636710   -2.55593247299567
O           1.53713408294101    0.98248833603526    1.16321109476333
H           0.78363350872381    1.68737001916589    1.48016477978802
H           1.28431932576781    0.76676888034352    0.20438798878906
O           0.85946255096926   -2.55056590111226   -0.04263933877564
H           0.06388967748848   -2.14801351121029   -0.45520969481838
H           1.55393044885493   -2.48598522793673   -0.69976865475596
O          -1.80516525659912   -0.63680340669115    1.62600267605386
H          -1.78784756869608    0.03389008828317    0.91708260680555
H          -2.07038067727389   -1.44422609285425    1.17626857764837
O           0.75394250749551   -1.13337214889242    2.19715042475440
H          -0.21972926161857   -0.97673436150883    2.17326823789867
H           0.91106288151532   -1.78915765956473    1.47775382244450
H           1.29585261209178    0.07249723029428    1.68438945985423
N          -0.40933163358912    2.48284018133021    1.75214332384555
H          -0.96127574361807    2.19744132195509    0.93801227692321
H          -0.33416458009319    3.49115028703412    1.76403895540854
H          -0.90210345665945    2.17946334072142    2.58284837556283
