    26
        -50.46658010  Gyration_radius:  2.39984183871 Dipole_moment: 4.032
 S           0.20752116775977    1.06071713962641    0.77387058664951
O           1.25571854969346    0.17630106029912    0.23800091315664
O          -0.49293697349999    1.72477118607421   -0.31861328837553
O          -0.68696942979288    0.31870980129106    1.64350497308633
O           0.90967256195920    2.13364631241238    1.64380033730328
H           1.49735659333577    2.58374885596892    0.97953258438340
O           0.33536084312981   -1.42057211662766   -1.64169929185111
H           0.80209764009039   -0.78944481952300   -1.04421582868722
H          -0.47167338698425   -0.95635713451936   -1.92506425334346
O          -0.49865096456663   -2.90972273319632    0.20552557479730
H          -0.11293619661420   -2.43712608355103   -0.64622449116615
H           0.14200070640511   -2.60901008690107    0.96701810618160
O          -1.94467956198592    0.09107160851168   -1.69051479818249
H          -1.42894929560003    0.76747365077103   -1.17190646442537
H          -2.50334340443800    0.58514696422266   -2.29221418335478
O           0.98388825181271   -1.79926359399881    1.93189463632169
H           1.31374630369742   -1.10148847764572    1.31838171223566
H           0.35339216922554   -1.31833484353877    2.48382382038512
O          -2.41330391777560   -1.33811502175538    0.57222041812658
H          -1.91040424276185   -0.67867140204316    1.10644498569326
H          -2.51548928535836   -0.91140148822006   -0.29867742755704
H          -1.39278503531105   -2.37320986364935    0.38812204890691
N           2.12239003174493    2.84682406788434   -0.54612430534648
H           2.59725395964242    3.62508166206494   -0.98555138362547
H           1.20594577858513    2.73061320893375   -0.96708765189673
H           2.64577713760003    1.99861214709322   -0.72424729940794
