    26
        -50.45770211  Gyration_radius:  2.42038148026 Dipole_moment: 2.959
 S          -0.51953100280543    1.20840372070082   -1.23930627601126
O          -1.22210086710434    0.10335786916306   -1.88341659621387
O          -0.89384676407219    1.31774714308758    0.16540165812134
O           0.91230184155274    1.16552733514838   -1.41662293995796
O          -1.05481915393405    2.50206852087911   -1.96637989360234
H          -1.86882015981026    2.17350773089654   -2.33298391100672
O          -2.90397699109596   -0.16046119410495    1.01000821324290
H          -3.22147934637791    0.25805633581520    1.81201622071183
H          -2.22210940690903    0.44100195913336    0.63735808624617
O           0.76569790504209   -0.30400059050290    1.50068137682727
H           1.55491243979479    0.26030021026810    1.64241006166061
H           0.13022895996629    0.31695508255182    1.09058765773432
O           1.72221837889325   -1.28678831264379   -0.80316223480289
H           1.57935145873569   -1.10260584935776    0.15220485736521
H           1.60577287986901   -0.40746501721746   -1.21940377535306
O          -1.21144101742539   -2.19746984790822    1.17684461594922
H          -1.96571590152367   -1.56086357885012    1.17323198302536
H          -0.46214762306965   -1.70781338135622    1.55507238047521
O          -0.54761809767094   -2.23350571269521   -1.24000827953911
H          -0.88748879991346   -2.33168695614810   -0.23971145720347
H          -0.93398111220343   -1.34661161387039   -1.57912461356303
H           0.47450198376349   -1.99642041459664   -1.14081227817632
N           2.67939426557492    1.53114390789247    0.95485705070654
H           3.63901545584893    1.29943608928023    0.72845895922617
H           2.68026496563128    2.44690530645489    1.38675879814458
H           2.17141570924165    1.61128123798198    0.07504033598963
