    26
        -50.46157660  Gyration_radius:  2.43416306458 Dipole_moment: 3.057
 S           0.29040790368247    0.42870431299594    2.09044428829992
O           1.54689299462942   -0.28885711470595    2.03888056401453
O           0.21160223059872    1.45125057725186    1.04997039360957
O          -0.87615282611337   -0.43399168911741    2.08217172501892
O           0.26054876979560    1.18524114562775    3.47698395057118
H           1.15209787900828    1.50539503151794    3.56844472991417
O          -0.04801863918708   -1.73008718848989   -1.11920021657716
H           0.62805172069209   -1.01719230529944   -1.13675403285728
H           0.21221412245502   -2.28507714772543   -0.34541095422567
O           1.74421352549884    0.23622726685382   -0.70823677999893
H           2.40009485448336   -0.18864704610455   -0.14767512378072
H           1.22043462656971    0.78731348608535   -0.08708360130105
O          -1.64589864312133    1.73026517184420   -0.84741942484880
H          -1.00203790376469    1.88481258889273   -0.12762713517370
H          -1.09784232783065    1.61348274583177   -1.67694370703856
O           0.62624642584037   -2.67119059694213    1.26769733320516
H           1.09234166142254   -1.87522015719989    1.59230842635491
H          -0.17335199575124   -2.71661123972586    1.79822535073466
O          -2.07058579513342   -0.60566952358527   -0.14762100602768
H          -2.01261986282854    0.42128138581455   -0.50152446840113
H          -1.29980367937333   -1.12280496264247   -0.64988227016336
H          -1.72826801511614   -0.55376430889151    0.80770568715477
N          -0.04990291692257    1.15013947022921   -2.89928445829364
H           0.11992955083880    1.83113539513204   -3.62779726642056
H          -0.32530140386585    0.28039892362317   -3.33872325529032
H           0.82470773347439    0.98346575877547   -2.41164873851312
