    26
        -50.45892980  Gyration_radius:  2.45697074177 Dipole_moment: 2.270
 S           0.15426456450911   -1.21925463768821    0.61332457750407
O           1.06602271047786   -1.50941364719523   -0.50051246903199
O           0.45385717194957    0.10365130717078    1.17020461436295
O          -1.23438060479721   -1.32887204750469    0.20895547246330
O           0.40493137434001   -2.27110461875878    1.71933490685614
H           1.37039357104772   -2.12512295909750    1.92849278643459
O          -1.83733255242665   -0.63489084244645   -2.23895556890054
H          -1.72519615185941   -0.89596427504223   -1.29190401671467
H          -2.12477341145257   -1.42342784367933   -2.70248364595622
O           0.65050457222319    1.92342966703301   -0.72763211760027
H          -0.25700863181899    2.33181657715278   -0.70503596551842
H           0.67843647456001    1.32982264952014    0.06052734291030
O          -1.81825075229761    2.74996266752777   -0.40701067488357
H          -2.03603983103996    2.09670237302719    0.30263219330957
H          -1.97695909332937    3.61666522974990   -0.03048182025929
O          -2.06591721759565    0.94681166734654    1.53306975031338
H          -1.11457689805684    0.74542381773397    1.60633845042059
H          -2.43490012633800    0.13336762758688    1.17153205491692
O           0.60797884572688    0.08707140938165   -2.37140018451602
H           0.65550912260039    0.99972165921756   -1.74525970279984
H           0.90125019675455   -0.63456490773740   -1.68798251525425
H          -0.38265573119887   -0.11107413956343   -2.49718008658000
N           2.84614960096096   -1.39922851355782    1.75540393564388
H           3.75890950066125   -1.53929023364818    2.16986159794265
H           2.55036584189466   -0.44299995693367    1.91428843119841
H           2.90941743450461   -1.52923801959687    0.75187265373352
