    26
        -50.46448231  Gyration_radius:  2.45246572574 Dipole_moment: 5.459
 S          -1.83210847278621   -0.17927138135578    0.86628668708765
O          -1.96208981364916    0.39417885381621   -0.45122547095627
O          -1.40844163705664   -1.56674275462560    0.86312469875686
O          -0.98931129643767    0.62896700800826    1.75094337259082
O          -3.27658735155241   -0.15899246384205    1.51115932747050
H          -3.13478903501829   -0.71527219514831    2.26839518298194
O          -0.92095879054746    2.86841367879983    0.27104115851544
H          -1.56046876570711    2.59549165847199   -0.39387269026332
H          -0.96876594658033    2.16465822990927    0.94355707397910
O           1.40312764722824    1.95535763696289   -0.75871693898501
H           0.65012260596887    2.49543819126917   -0.43461979511978
H           1.67175764817065    1.42466260276080    0.00784880316914
O           1.58617098856997    0.39810691923391    1.54645537439279
H           1.97542711778488    0.75869300731592    2.34474821433020
H           0.60377444559549    0.49511153169227    1.65439795612087
O           1.12973895309962   -2.14543702273098    0.75029677812550
H           1.50055230834581   -1.31244633178181    1.09769510230794
H           0.15416904920327   -2.04583221470505    0.87531550750087
O          -0.00450561603400    0.29557997453457   -2.20598783433828
H           0.58916084015268    0.97780755187543   -1.78259256220707
H           0.63277385024288   -0.96448378881185   -2.02360594755977
H          -0.81691735705373    0.30410132272898   -1.65074879161047
N           1.13898105615926   -1.94873144928545   -1.83169275562305
H           1.19150340742561   -2.07251114418758   -0.75174570657899
H           2.06804062777549   -1.94995160379063   -2.23905404400365
H           0.57964351670114   -2.69689581711959   -2.22740269008178
