    26
        -50.46448224  Gyration_radius:  2.45244986113 Dipole_moment: 5.476
 S          -0.02809335461255    1.79709551495848    0.95329531418878
O           1.30772095928082    1.82175739400920    0.38760571869680
O          -1.07928154874690    1.74687493167029   -0.03360200993115
O          -0.15453354903124    0.74429062326127    1.96404767046175
O          -0.20387601287648    3.16400592347128    1.73017551792811
H           0.62362857363753    3.20486604641142    2.19572119538748
O           0.69918975542128   -1.63440803466701    1.38035316984112
H           0.37733119874740   -0.72986197638192    1.63398621380636
H           0.80223394516581   -2.11699564293772    2.20212516672060
O           2.49375952885164   -0.41392400233944   -0.23275981875479
H           2.17700417922567    0.48323479027456    0.03582924698547
H           2.00279955649911   -1.02396005740119    0.34937336616835
O          -1.61284523719161   -1.93426547632085   -0.14895769653882
H          -2.17438580779028   -1.38453803700038    0.43954759621747
H          -0.77432329870639   -2.02822371326217    0.33004958842737
O          -2.67379631685787   -0.00684476958274    1.41739892685080
H          -2.87189074864392    0.68715945649232    0.78116076112083
H          -1.80945757129364    0.25361484308739    1.78469432608210
O          -1.11378241056014   -0.08262189913402   -1.92433455488518
H          -1.38124534807091   -0.85778923313822   -1.35434652639845
H          -1.13716091984013    0.68706290851829   -1.31173228395171
H           0.24294293698124   -0.30324110264483   -2.29579765527388
N           1.32389931945093   -0.48445690070328   -2.54175441135974
H           1.42886322821778   -1.36939071467169   -3.02654223995163
H           1.86583932767123   -0.49542808420631   -1.59799023201130
H           1.66945960507022    0.27598719223920   -3.11754632982943
