    26
        -50.45412433  Gyration_radius:  2.56363936399 Dipole_moment: 1.815
 S          -0.55155200393303    0.61948440709675    0.36008514454227
O           0.70113859236203    1.37598483745026    0.33474758332788
O          -0.74530594196488   -0.14213619940222   -0.86500372442170
O          -0.59718399508213   -0.26423108227163    1.54147981252281
O          -1.71978706902162    1.59330374117617    0.54193830542981
H          -1.79336216784567    2.17788381077771   -0.32384203969317
O          -1.55576943428899   -2.42511793566746    0.11870919299112
H          -1.75356667096570   -2.02423985924641    0.97242510153272
H          -1.30860524185839   -1.65101706175591   -0.43578240898295
O           0.55224702059065    1.70126933247067   -2.33873310072397
H           0.12010972252451    0.83785058720187   -2.25891143438351
H           0.91234306367437    1.83360855773044   -1.44828064369735
O           0.74836609109100   -3.55332836408023    0.56858489700304
H          -0.14209660958067   -3.19226863709294    0.28357302259881
H           0.57779805844991   -4.39596909755450    0.99309588686948
O           2.86466558020698    0.03385230619266    0.72342183162300
H           2.06949042496967    0.58984133006636    0.49084447230111
H           3.45949408547754    0.61048566924616    1.20700452239097
O           1.42280130521930   -1.59059843988832    2.01719028292448
H           0.53215139968230   -1.00081483069138    1.89145328070459
H           1.24292988157627   -2.43506729404794    1.44580204245979
H           2.13087431372115   -1.02760496976311    1.52580789075614
N          -1.81714335537939    2.96682401365181   -1.60521987909836
H          -2.60931254272662    2.73564853378191   -2.18915411540074
H          -0.95607119894966    2.65722549614753   -2.07356484360084
H          -1.78465329785560    3.96913111845750   -1.47767109005241
