    26
        -50.45608064  Gyration_radius:  2.51588433694 Dipole_moment: 3.354
 S          -0.52018649744054   -1.26995810183760    0.55327341723305
O          -1.22426261677290   -0.91281329375474   -0.66653002491589
O           0.36714692179908   -0.07505550341299    0.94996297512964
O          -1.37987763993246   -1.63242975181474    1.63746860685047
O           0.47925355341335   -2.36819726174166    0.28021305851390
H           1.20605495206492   -2.03634968990978   -0.42958525849148
O           2.13082092511315   -1.48787993197506   -1.35028480662763
H           2.64725259782598   -0.82659694560954   -0.81308434651196
H           1.58225943431209   -0.95966366235801   -1.96957301214545
O          -2.90619377519366    0.37597043687380    2.46601477110314
H          -2.46620818274768   -0.44579877822375    2.16445488600679
H          -3.01921496715612    0.28651909784778    3.41400190818982
O          -1.86833254765492    1.65234000930370   -1.25921925680756
H          -1.90608080763679    0.69419507663558   -1.09255528109588
H          -1.17646205755085    1.77168304914215   -1.91594619056395
O           0.23265482786920   -0.16467957933072   -2.71796478725592
H          -0.07454916375693   -0.61696730890844   -3.50576667441896
H          -0.35578842837260   -0.45883600752607   -1.98537789082323
O          -1.09836513335908    1.89468224913100    1.26987871624722
H          -1.84730924668862    1.50418796501867    1.77990587425001
H          -0.23289156721477    0.79728968056091    1.11635958312499
H          -1.44362654937014    2.02651195736431    0.35508205656763
N           3.19827339894826    0.38174388973040    0.23200703694024
H           3.93695809223539    0.12638352090958    0.87430614957163
H           2.33016014207027    0.44583815436952    0.75559722047807
H           3.40851433519629    1.29788070951544   -0.14263871055366
