    26
        -50.46437109  Gyration_radius:  2.4946984482 Dipole_moment: 5.811
 S           0.69872872980967    0.76419164794898    0.42098279105170
O           2.15023235750806    1.22792859970663    0.12475110765122
O          -0.15235360826530    1.70337987308555   -0.28949521280134
O           0.55518945092443   -0.59347962124828   -0.14936606196225
O           0.47838961935294    0.73344732458995    1.85203891435359
O           1.57095845784223   -1.61974977960384    2.27456732690933
H           1.31591902794206   -2.00318764996763    1.42931911218290
H           1.09956406051059   -0.75829340188301    2.30194798843181
O          -1.71373497589919   -0.97114194967370    1.17595599549572
H          -1.45622198472733   -0.63541870162887    2.03971349722179
H          -0.88250085477373   -0.96790920627745    0.65789660302175
O           0.28536317228093    0.32552282286093   -2.54353313594702
H           0.53609471776628   -0.20144871418465   -1.74586318437904
H           0.30581649867733    1.22679489054841   -2.18903621008813
O          -2.67272327771695    1.03752879703945   -0.25033901762206
H          -1.79752604024510    1.49608937417094   -0.21388450846631
H          -2.53244101899518    0.33916101690198   -1.51127817939507
H          -2.56553370909414    0.30287062884205    0.39872222989594
O           3.70175886273654   -0.18475695079968    1.66681274982856
H           3.89581112241505    0.35063524494870    2.43921253478310
H           3.03915503103081   -0.85947046924461    1.95933457232962
H           2.79561402362959    0.68988209713120    0.66301188582713
N          -2.25798311319148   -0.22985378030969   -2.43302308635557
H          -1.20442146046240   -0.01942563604867   -2.58442197212425
H          -2.80873303799852    0.06969670620795   -3.23054839065577
H          -2.38442202110945   -1.22299317312867   -2.26347835921144
