    26
        -50.45726319  Gyration_radius:  2.46381474824 Dipole_moment: 1.964
 S           0.58140896082190    0.82179712604782   -0.26004079278985
O           0.99856140445702    1.86047212039113    0.64788666858006
O           0.64641113064348   -0.50965205154706    0.35181846558386
O          -0.73583993328852    1.05786041605299   -0.84980369160095
O           1.56909496902413    0.78092863961274   -1.48424089565733
H           2.46584924081256    0.71735761617992   -1.03352469291079
O          -0.39193133415471    0.52165721975721    2.56549754779367
H           0.04529767998259   -0.13223405471633    1.99241311140949
H          -0.04766973673515    1.35879950526608    2.22210935955194
O          -0.12809679278577   -0.86128947669684   -2.94071865707107
H           0.55966125208081   -0.31960025321623   -2.52529960075297
H          -0.84543146321219   -0.25184578819710   -3.13171798311770
O          -0.85029795517274   -2.31041636208369   -0.80255079609875
H          -0.19019978300988   -1.80683154239805   -0.26659267303697
H          -0.60382219898699   -2.08844937439042   -1.72590168018116
O          -2.89653117247623   -0.09563308427013    2.03212478510964
H          -1.97433897057704    0.11700535478722    2.33242928168553
H          -3.43263180807557    0.67398774860711    2.23086795183879
O          -2.58084798994340   -0.57228172254076   -0.45396038010705
H          -2.78710453426978   -0.45946751124113    0.54311060139169
H          -1.88752413984946    0.17366712419500   -0.66184596204557
H          -1.96044339051916   -1.44961357247050   -0.57880868259166
N           3.52689928737673    0.67697801394249    0.20044106165392
H           3.53408462039598   -0.23590379604578    0.63666704708309
H           2.91854265536482    1.28145758949881    0.74762353838004
H           4.46690001211231    1.05125011549337    0.21201707791211
