    26
        -50.46217519  Gyration_radius:  2.47806785255 Dipole_moment: 5.219
 S          -1.44467704336387    0.64470155820389    1.34598580081380
O          -0.90856136632368    1.78492712176283    0.61774397059517
O          -2.61875860789890    0.04795182515144    0.77017054523768
O          -0.37851461063354   -0.31403161346249    1.64322578970130
O          -1.90439711857794    1.21671665011561    2.76015932725438
H          -2.79892083672227    0.89843818248004    2.82644600346530
O          -1.40315594759797   -1.01539359713249   -1.39972940935643
H          -1.22095324437027   -0.18396933047107   -1.85926798740019
H          -1.92873904165174   -0.77216736115245   -0.62038158762310
O          -0.54381606296593    1.59206934949321   -1.97682000732313
H          -1.00705111850233    2.29973542952316   -2.42657138964136
H          -0.72085932402669    1.70791959093801   -1.01419050830150
O           1.94711701587549    0.44657232238255   -1.62003265742508
H           1.15611593041461    0.86684913846660   -1.99711641935226
H           1.86410908038450    0.80353693602251   -0.22488923724870
O           0.85864349935784   -2.68520707278933    1.22395663844582
H           0.36890489166995   -1.87451088116811    1.44637025369169
H           0.21750552956627   -3.39767359959335    1.24905988994132
O           1.12386202668560   -1.99793672516125   -1.41056041327376
H           1.22818145341227   -2.32332671550798   -0.49759538672163
H           0.16948486690463   -1.80449881134487   -1.49725200304219
H           1.74131912445564   -0.53757191086656   -1.61898458283361
N           1.64799944017733    1.09043589820686    0.83361486949141
H           1.10356698691308    1.95645115639843    0.82176861830896
H           2.48825019293950    1.16444421732912    1.39665566037929
H           0.96334429388101    0.38553823217394    1.22823422221048
