    26
        -50.45726319  Gyration_radius:  2.46388189718 Dipole_moment: 1.967
 S          -0.73539326271534   -0.65059174991757   -0.34082111941418
O          -1.58177085634229   -1.45667192494157    0.50246922483910
O          -0.52623225838291    0.69439782329841    0.20558472122028
O           0.54275156996241   -1.28526935374012   -0.66044744690497
O          -1.44139879637980   -0.44435617916612   -1.73188369540765
H          -2.34796274605929   -0.10195286814526   -1.46296599387466
O           2.40306639192257   -0.52929937621579    2.54445075055207
H           1.42077901731712   -0.45605115388363    2.66940400323194
H           2.65502439309425   -1.39699167665822    2.86520354043762
O          -0.22671295010926   -0.39210798327894    2.60800728004015
H          -0.72865567994320   -1.12920468711403    2.23117759829219
H          -0.35329518849336    0.30603238479029    1.94185450279127
O           0.87915669576186    0.54599771484925   -2.88690458975656
H           0.00453174010940    0.24892731780245   -2.59409392270903
H           1.41615159729568   -0.24966207039416   -2.91865869478516
O           1.59739958344612    1.91636115948532   -0.69590056126741
H           1.46361894126705    1.69403192835663   -1.64204886240115
H           0.73847417420200    1.65828650591821   -0.28092899635129
O           2.67514155183894   -0.19289596826331    0.03044650284888
H           1.84626061397337   -0.73603931975829   -0.28319906622910
H           2.36098939714831    0.80677162984920   -0.23752290735809
H           2.66337851155274   -0.27435812345597    1.05154354920465
N          -3.55320182639902    0.32821124712638   -0.45695196283390
H          -3.24565322631906   -0.37073078345546    0.21523952399567
H          -4.54745790988042    0.22514746199670   -0.61401019331810
H          -3.37898947794731    1.24201804495647   -0.05904317481306
