    26
        -50.46217378  Gyration_radius:  2.47803238743 Dipole_moment: 5.228
 S           0.21352428490457    0.32331136299030    2.04123159691383
O          -1.11133277493434    0.00526275962073    2.49920522152741
O           1.01965344319157   -0.81958978249786    1.63828620556349
O           0.25171914034018    1.35980229727406    1.00787406339819
O           0.96091703844058    0.95482626919210    3.29881345650457
H           0.26974768288065    0.98222508745553    3.95247051762400
O          -2.10083127016336   -0.72839621486130    0.09078646937630
H          -1.60197222747012   -1.55200395956903   -0.00123926633038
H          -1.89459900263543   -0.39721924014714    0.97986783877288
O          -0.89940747053982    2.76505288647266   -0.99927042901743
H          -0.51145170466299    2.33102551209605   -0.21981320826125
H          -1.75263847440446    3.10092202156802   -0.71894059612877
O           0.72405632183340   -1.10082665991974   -2.20818421847713
H           0.41968575049801   -1.81060076785502   -1.61818190230888
H           1.52035624816188   -0.27705038809198   -1.33206022251706
O          -0.00909408978746   -2.59536214976368   -0.00111849255775
H           0.04432423507871   -3.46938332468692    0.38730998229876
H           0.38141652427796   -1.97208437559204    0.65510945399431
O          -1.38792128474389    0.39346164052933   -2.27256764184845
H          -0.09119881455524   -0.53689766249204   -2.37608627853135
H          -1.82174942217906    0.01139612765994   -1.48420010797276
H          -1.17190416382202    1.30903674434687   -2.01702987378479
N           2.05000934638049    0.30712598106916   -0.53968073791630
H           2.80770482841059    0.86955141327723   -0.91130235743286
H           2.36210591220659   -0.34766935210140    0.18137530956392
H           1.32887993325254    0.89408374403374   -0.03265478244598
