    26
        -50.46217212  Gyration_radius:  2.47819033069 Dipole_moment: 5.226
 S           0.86373030875190   -0.09175642527685    1.88666433310269
O           0.17335196160487   -1.22578406455874    2.43753462533535
O           1.86207044584563   -0.40919708839923    0.87528981781232
O          -0.02346070816067    0.96996780695847    1.40933615965293
O           1.67207450970108    0.54891319803208    3.10111075452826
H           1.40195888955767    0.00531923957358    3.83414692357890
O           1.20872369650633   -2.01184358350066   -1.10248711566758
H           1.81715345745384   -2.75072553282887   -1.14144191566924
H           1.49452474421981   -1.45239158996370   -0.34320131281453
O          -1.25783766987340   -1.81912512903814    0.21946978982006
H          -0.88228998075297   -1.64708528191968    1.09808497573256
H          -0.52137075343278   -2.14079005190007   -0.31889184445285
O           0.16026551193616    0.08710290629251   -2.57011564906127
H           0.50042847614407   -0.77865182059947   -2.28919989167765
H           0.76291701604958    0.98993704161153   -1.61738634194682
O          -2.41837480397948    1.83960670343345    0.49322617940811
H          -3.12278111042657    1.52745360808101    1.06398873638680
H          -1.58735031862920    1.55342881200759    0.91020348482651
O          -2.21143170136108    0.01563079773482   -1.53544884347339
H          -0.80859339108023    0.08338261936396   -2.30223503703294
H          -2.04226535654902   -0.71810072591799   -0.91207551283016
H          -2.36776058536847    0.79196595580580   -0.96707948781947
N           1.23259420068057    1.56338474227307   -0.78189743239124
H           0.59536164540732    1.49338916658235    0.05991257432528
H           1.43411513635078    2.52518521005311   -1.03225007300650
H           2.06424637938695    1.05078346611713   -0.47525789666726
