    26
        -50.45289442  Gyration_radius:  2.64793279488 Dipole_moment: 2.995
 S           0.70084106586811   -0.28464772792750    0.30792029620089
O           0.29229962716556    0.16507304051736   -1.09104695824168
O           1.27366032978312    0.83042835443975    1.00039965151833
O          -0.62520165911095   -0.68226010171050    0.98421661067779
O           1.52954376657133   -1.46110808050675    0.20466949466579
O           2.49470198035533   -2.17532990668039   -2.23023230547174
H           3.23160491800227   -1.61126943484684   -2.46849130710252
H           2.31149798913190   -2.01280868793541   -1.28730288564628
O          -0.49224256438590   -3.20558344908926   -0.23354281121977
H           0.34286469187989   -2.80220518641987    0.05920655067208
H          -1.16949749159955   -2.83130593984578    0.33565958861315
O          -2.19808358823819    2.76705909027493    1.82497589541687
H          -3.01952852238903    2.44611412237024    1.44987867084198
H          -1.57466621083327    2.91839937238966    1.06309337068850
O          -0.15073871565399   -1.83993975425433   -2.48230447065888
H           0.77789560413114   -2.07719838186452   -2.68779868503980
H          -0.43078153721301   -2.49215450443343   -1.79597690872491
H           0.05522073980567   -0.66870296116322   -1.72323893348805
O          -0.70599796744967    0.89561905698204    2.90843099846405
H           0.18562833430075    1.22649375700333    2.74022956996928
H          -1.32510999972681    1.62616695499940    2.63364518838007
H          -0.74044832376874   -0.07582406990193    1.82627699340422
N          -0.40799481983440    2.87541386910717   -0.15828139073976
H           0.31342164415601    2.27494540019909    0.23722243217196
H           0.02566886346249    3.76014429097909   -0.39312381258180
H          -0.69455814456695    2.43448087735368   -1.02448481273114
