    26
        -50.45326305  Gyration_radius:  2.48006315893 Dipole_moment: 3.057
 S           0.55736201961874   -1.06813045123103    1.33678606506507
O           0.99323445215703   -1.88890186652861    0.20540603253607
O           1.41199967532749    0.08001446489657    1.53445143271807
O          -0.85501403414899   -0.75806721146400    1.26521334815076
O           0.73200571437086   -1.97971777547588    2.61919185359432
H           1.67814635369458   -2.04692588297233    2.69570518235284
O           0.82422976486735   -0.56556373494187   -3.13194744930365
H           0.86866931353322    0.07968040355750   -2.37162881008591
H           1.72982732955174   -0.82030673286268   -3.31788255852992
O           0.86387571380192    0.88911171645167   -0.98462371452354
H           1.23723320474323    0.57573082545439   -0.14628601100105
H          -0.00106784734768    1.29033789402485   -0.74364108879192
O          -2.42287888915395   -0.99957816009189   -0.85060107266655
H          -2.03882337773615   -1.01803248635547    0.05171997996628
H          -2.45952694748691   -0.06439424050428   -1.08259464965974
O          -1.43548039218772    1.65131303327472    0.14520065448263
H          -1.36151971902085    0.85587113851985    0.69947910914106
H          -1.00686479544353    2.34281333251560    0.68930796279946
O          -0.44297069838873   -2.26958465313064   -1.78232099336269
H          -1.32753823860188   -1.80251247600710   -1.51643758860944
H           0.04175295520651   -1.63392401097598   -2.44997755279489
H           0.15267667947597   -2.20382681418685   -0.92043257962623
N           0.33365901860356    2.83514038322434    1.85802725104109
H           0.12462190204943    3.08655459049416    2.81635790396270
H           1.00634644377387    3.50563058067621    1.50629281167180
H           0.79604440883935    1.92726815459310    1.87523447180997
