    26
        -50.47063284  Gyration_radius:  2.42468920876 Dipole_moment: 5.297
 S          -0.89574283243459    0.92776571530013   -1.58224524759895
O          -1.80794134910373   -0.20267806893632   -1.52199693745206
O          -0.92478676046952    1.69193219590928   -0.32941533570089
O           0.44456775364082    0.58969495249141   -1.97912784168826
O          -1.48989480214672    1.88539277366819   -2.69440336524096
H          -2.41355496967901    1.66165844488463   -2.65882809668636
O          -2.26055342082544   -0.04062839203648    1.12085878316020
H          -2.48757898797581   -0.59802102340851    0.36553704823227
H          -1.88425242009105    0.75483266947036    0.68490043948857
O           1.02043510698677    1.80211865191352    1.39415511303436
H           0.32666864039394    1.80511643795423    0.68484252417453
H           1.05380391597467    2.69791278446325    1.73242358463088
O          -0.01764980779945   -2.16089645875489   -1.68718759629963
H          -0.76893060610820   -1.53981210949868   -1.63038783026112
H           0.60679753795887   -1.71777462256081   -2.26923515939355
O           1.42324178232662   -2.07180392610667    0.55054078392963
H           0.62628040198927   -1.32415072124423    1.53708714790261
H           0.85781701830003   -2.28031934366705   -0.22980866171580
O           2.53607193765363    0.16356737911881   -0.33651190038203
H           1.89602636023266    0.32915114803472   -1.05420856106392
H           2.32904488174449    0.82937604362149    0.33161704955467
H           2.02599497890572   -1.35958177298561    0.22418789667836
N           0.08185041861740   -0.63871984489524    2.20591635434459
H          -0.91094504422651   -0.52442302533263    1.85634956775182
H           0.53374013865345    0.28997679400055    2.12118995978947
H           0.09949010749651   -0.96968671141138    3.16375028081758
