    26
        -50.47063281  Gyration_radius:  2.42479930932 Dipole_moment: 5.296
 S           0.02975808722506    0.62196450476378   -1.94457918833770
O          -1.40305720055226    0.38559962431053   -1.87556715796323
O           0.44036588869382    1.63956270527710   -0.96972342629763
O           0.83370201273718   -0.56721553484758   -1.85681403925596
O           0.28031820601205    1.25668633616195   -3.37333522788759
H          -0.56116031548791    1.66474396757168   -3.54610912167112
O          -1.34408308235264   -2.14246693705203   -1.05558292890995
H          -1.50022533580069   -1.22894535882800   -1.36302059494279
H          -0.55186015808653   -2.41464401559183   -1.52822701719402
O           1.87465250407793    1.18075499194031    1.15130867649952
H           1.39640537595844    1.34004274031163    0.29671405688017
H           2.47041370565035    1.92308793441005    1.26089794564688
O          -1.78551576307314    1.73247850065390    0.41808159415152
H          -0.95453289742072    1.91399587417263   -0.07289919665563
H          -2.28237878010493    1.19711411953325   -0.21365647207559
O          -0.32936474432349   -2.12951412289155    1.40660641428844
H          -0.84730637126647   -2.22278296196711    0.57287589598384
H          -0.48951059859581   -0.75981201262967    1.92188153053779
O           2.02827131017017   -1.52598563607792    0.35838747938163
H           1.69780884077174   -1.28560300611507   -0.52774204073228
H           2.27446950014602   -0.68402740048079    0.76217353509526
H           0.61038971639790   -2.10175780080895    1.10127822233702
N          -0.48372096284467    0.29872093257021    2.22693153799041
H          -0.74245624878425    0.40126161610923    3.20152161536761
H          -1.13339089162241    0.84745255643225    1.59635086944602
H           0.47200821247691    0.65928841306682    2.05224704831429
