    26
        -50.46125510  Gyration_radius:  2.40961045619 Dipole_moment: 3.114
 S          -0.47867405100651    0.97169718987067   -0.20439162771333
O           0.06571161309286    1.56353608183944    1.02148290244261
O           0.60174644673492    0.43431057077854   -1.03129688582442
O          -1.46759651848882   -0.04940015991847    0.10384465701750
O          -1.18903174079557    2.08210009842101   -1.01023442746281
H          -0.43956501902654    2.73238205318799   -1.15053960625169
O          -0.31364996803964   -1.50571140952771   -2.68817674713152
H          -1.03934622077759   -1.11950951562224   -3.17994956695943
H           0.08179896376899   -0.77768381925588   -2.17297498917523
O           1.57388701754683   -1.50730606031235    0.49371567882245
H           0.83730152179371   -2.13868210874369    0.27642583327574
H           1.44546972116822   -0.77955046571126   -0.15319436509956
O          -0.70454665330848   -2.61184637276684   -0.21338374419611
H          -1.11870585098844   -1.72856765299756   -0.14937117907657
H          -0.55952795050728   -2.71254038784611   -1.16715695136292
O          -1.59285302262063   -1.37556871909553    2.41152226892345
H          -1.55539558072468   -2.27106901314291    2.05883216876116
H          -1.80729687416563   -0.80372088774400    1.64557000737569
O           0.73164520892705   -0.33181379561600    2.50740341606224
H           0.49068444735554    0.54771885530909    2.00896900583864
H          -0.17550766090989   -0.78722313230447    2.65634177010598
H           1.20824653970024   -0.90532639156128    1.71702403020123
N           1.09908189912096    3.27645603183197   -1.02371040068393
H           1.56222379388583    4.12438971139315   -1.32551172599934
H           1.57911959078861    2.47485103900527   -1.41628726945207
H           1.16478033747285    3.19807826052690   -0.01495226243600
