    26
        -50.46125517  Gyration_radius:  2.40976216458 Dipole_moment: 3.116
 S           0.92714974185121    0.33502402083730    0.49458737030759
O           1.48145329385278    0.84574321309330   -0.76298032676450
O          -0.37466349888263    0.94689503324085    0.76069577014713
O           0.83554331502971   -1.11642592246409    0.47292925274849
O           1.88230997584142    0.72597659984199    1.64428649774778
H           1.89186922193431    1.72451520417101    1.56008789454226
O           0.71561155624940   -2.58395890566279   -1.74790684398622
H          -0.09585595294939   -3.06453917970712   -1.55216741939490
H           0.99966103607938   -2.19598629817038   -0.89441450792348
O          -1.84908177804211    0.04273374492057   -1.25270369271877
H          -1.45715651950928    0.56873155646541   -0.52189436553239
H          -1.97563825364119   -0.85525119537572   -0.84560117362902
O          -1.87639050290004   -0.61939065013648    2.38550911521994
H          -1.34787572231072   -0.78166668637099    3.16786790005621
H          -1.37901213960298    0.02887494699479    1.85243577247208
O          -1.61920768915217   -2.17287930595056    0.14448296622114
H          -2.10758070973461   -1.92376353683517    0.94463713744562
H          -0.70287297593093   -1.90774234381148    0.35847271677191
O           0.20375769792627   -0.24121104278794   -2.61415473415571
H          -0.76805171549723   -0.09755730702245   -2.15182161306674
H           0.82431694924860    0.27041225571524   -1.95531792064080
H           0.43221505759003   -1.22824940422358   -2.45178499232559
N           1.46282722970053    3.16521096870295    0.91214221876136
H           1.72213529560086    2.94635656652467   -0.04324974416119
H           1.71819194408366    4.12271957350220    1.11836982258877
H           0.45634514316600    3.06542809451083    0.97749290927038
