    26
        -50.45852403  Gyration_radius:  2.50818079149 Dipole_moment: 1.940
 S          -0.40555449419200   -1.34473585982411   -0.21546738241339
O          -1.40466958773659   -0.27457367078062   -0.37028661677724
O           0.59293334306603   -1.26330666363645   -1.27284377946593
O           0.20278749008408   -1.29650757373232    1.10516720046503
O          -1.15474553915877   -2.69302867766110   -0.32907679742009
H          -1.50896021880812   -2.64221133323968   -1.26019853995413
O           0.10831602295750    0.64560978220465    2.94809957477977
H           1.06741936604848    0.68442042250819    3.02357224493976
H          -0.06199732888594   -0.11377034325983    2.35630016409480
O           2.53427123503952   -0.08370410159265    1.40003177244119
H           1.71892940030631   -0.62528484153549    1.29691474811327
H           3.26890320275224   -0.69599796819304    1.33844629323044
O          -0.67137629220229    2.81379597119481    1.71818054093017
H          -0.36901949331999    2.02121453745196    2.24348655287858
H          -1.58700374909541    2.96133409421856    1.96130142241619
O           1.85451655061874    1.01126998302065   -0.96665974413218
H           2.25091292169730    0.84133025285625   -0.08675470938666
H           1.50419378980755    0.13106315347758   -1.24392021504556
O          -0.42900837581144    1.98138717362859   -0.66905368275910
H          -0.50734886592006    2.40328103884643    0.26747932033381
H           0.58264093333138    1.71095605912193   -0.82117461699185
H          -0.91156592078894    1.04422770867459   -0.58812921140966
N          -1.70556368165721   -1.98290753080169   -2.76824421264721
H          -0.74690478039357   -1.64683388691167   -2.76715014585027
H          -2.31053716832194   -1.18258102450779   -2.63514236749557
H          -1.91156874951755   -2.40444673150282   -3.66487782288572
