    26
        -50.46400447  Gyration_radius:  2.43675015893 Dipole_moment: 6.305
 S           1.72534255558373   -0.95381197322912    1.09258540101595
O           2.54827522258255   -1.46917154823203    0.02234894904252
O           1.39590806779322    0.46304332860083    0.91932935900102
O           0.55726582389233   -1.75810620774439    1.36371430896460
O           2.62149417909024   -0.98342630201717    2.40691816977235
H           2.87604588345994   -1.89937730526249    2.43524947894642
O           0.66795700471562   -1.13558762168828   -1.77465640103523
H           0.95849106600315   -0.24796301250597   -2.02174384695971
H           1.33293079537942   -1.43424607278727   -1.11904805717013
O          -1.89044857297813   -0.87854326272381   -1.33303518626126
H          -2.33793659113355   -1.45299698089504   -1.95527702371651
H          -0.91870306630300   -1.08213648942359   -1.42476065376458
O           1.30244528965504    1.58840419565915   -1.40022365098913
H           2.04932115580500    2.18062890692240   -1.49566641534275
H           1.42044780067191    1.14459244919981   -0.51473997455738
O          -0.96049825368050    1.36766617909751    1.68710308261045
H          -1.23689443067823    1.66104911592014    0.30171257232196
H          -0.02264897028025    1.08445254137574    1.59976487113541
O          -1.98358933602724   -1.03085778850044    1.49493311646255
H          -2.18123462513522   -1.09179792571797    0.54983435863721
H          -1.09071612291037   -1.42666908077538    1.57436337416665
H          -1.45808560682802    0.51256696257797    1.80107628471567
N          -1.34202991335044    1.72380250063748   -0.81029851981694
H          -0.37761542120311    1.83173234585476   -1.18126145783576
H          -1.94552967308091    2.48425824010109   -1.09946583449331
H          -1.70999424110431    0.80249480557431   -1.11875630487258
