    26
        -50.46274735  Gyration_radius:  2.39305864456 Dipole_moment: 4.909
 S           0.31280179337450    0.71753591114232    1.40387887856243
O           0.77759012730708   -0.58171734247837    0.88387661520855
O          -0.06214973365695    1.57842206920499    0.26845969792240
O          -0.76945622462429    0.54402188863897    2.33793390776052
O           1.50996159411467    1.38004908264709    2.11147906158721
H           2.12128845106490    1.59887316245270    1.33912332513793
O          -1.08267137262381   -2.33652418579733    0.42449001844935
H          -0.36221878880985   -1.69817139862530    0.66892690655768
H          -0.92057639687034   -3.13037040537195    0.93557933490169
O           1.62629929922094   -0.68960584561195   -1.57007914498616
H           2.12659756833575   -1.50630361089541   -1.62074764769253
H           1.35956976320229   -0.59087403091973   -0.62192867682219
O          -0.98471112301783   -1.15979260153026   -2.06953796983555
H          -0.02817805672543   -0.93312992770722   -2.07357034134224
H          -1.09816394310579   -1.80016445309945   -1.34711682026495
O          -2.88005083102985   -0.39317020168043    1.08426556694171
H          -2.24167040400646    0.01852027087515    1.71326973884452
H          -2.50238225581944   -1.27291535725264    0.90225397039185
O          -2.08894484881570    0.82480377855516   -0.95803010444506
H          -1.69605369011801    0.04832216835986   -1.53300472911734
H          -2.58141408104729    0.35817956943986   -0.15141425034971
H          -1.25559513624563    1.24940755800900   -0.49047883648721
N           2.68114898228882    1.89110541817357   -0.14634322334613
H           3.29550360836652    2.67221532800009   -0.33614862861628
H           1.74532695020979    2.11810374306870   -0.47159426461385
H           2.99814873905091    1.09317940237217   -0.68354238433418
