    26
        -50.45651476  Gyration_radius:  2.52459662572 Dipole_moment: 3.988
 S          -0.60609607368593   -0.64169157958635    1.30580406204601
O          -0.92964162773025    0.64146382058343    0.66738624565994
O           0.41819913279791   -1.33854009847297    0.49770786534681
O          -0.17649742980330   -0.46866034222363    2.67266585695175
O          -1.87108951426593   -1.51704078034297    1.28548655465538
H          -1.93495754651846   -1.81165183473577    0.30674722019537
O           1.19454889791278    1.94648385011504   -0.18214426689928
H           1.04738000021465    1.87133584789874   -1.15167238273097
H           0.36136887399207    1.60648291459253    0.22278796733932
O           2.29820410752609    0.18098469758724    3.10022458624899
H           2.65177025202373   -0.50682769601368    3.66748510683424
H           1.32086445981921    0.01291085001102    3.04619670873338
O          -2.00498778023675    0.78610398246579   -1.68665919539046
H          -1.62389577678181    0.70578729209796   -0.77214779522811
H          -2.74023365660646    1.39570960995445   -1.60331197635428
O           0.37894274864859    1.59128651326495   -2.71692016263787
H           0.22142676182264    2.35542779658282   -3.27335228140579
H          -0.49871343109743    1.24401700353600   -2.45625144307301
O           2.51224087294353   -0.01836666984498    0.57128873039619
H           2.08275194601696    0.89637813088267    0.20865853074721
H           2.60096921172050    0.10436265974806    1.58242340893054
H           1.68662578012678   -0.67230765373014    0.48525685166790
N          -1.70158197172475   -2.08416937727923   -1.20880647767780
H          -2.03911065114659   -2.90639986690591   -1.69011273606886
H          -0.68985507209605   -2.11799021396371   -1.14386527174152
H          -1.95863251387430   -1.25508885622727   -1.73487571654403
