    26
        -50.46347774  Gyration_radius:  2.43825805843 Dipole_moment: 5.952
 S           0.32716427463039   -0.96880752776670    0.89202133833922
O          -0.75831220370514   -1.22055447606649   -0.03446558355604
O           1.40961847173879   -0.20458826222921    0.25717569948382
O          -0.12370113805388   -0.31590500123304    2.10961197965256
O           0.93938045021061   -2.34672059313172    1.31395678089724
H           1.40593728947405   -2.67236388535171    0.52366127289862
O           2.31146452769007   -2.30626043617576   -1.00425196241160
H           2.09034853331381   -1.39380857962463   -0.71620061018370
H           3.26865826745885   -2.37079090445201   -1.01220314499183
O          -2.57626204142607    0.50995666124507    1.28764070193636
H          -1.79742026841621    0.17258422612712    1.76343727955186
H          -2.72331961126674   -0.13615920206611    0.59033273636176
O           0.00806554030757   -1.72287214693142   -2.67858264280244
H           0.86946880328500   -2.11628481526637   -2.50918368380414
H          -0.43680027699868   -1.72183478634051   -1.81925608318784
O          -1.59815750610074    2.69921336394127    0.10613744380069
H          -0.30608397078493    2.46260337697639    0.78334164276054
H          -2.15835859507201    2.03582843365704    0.57303807814629
O          -0.69285961884429    0.94151576850882   -1.66846780434984
H          -0.74587398992168    0.18824673824472   -1.05437013243092
H          -1.40448375405912    2.28430960149661   -0.75596536003837
H          -0.48079165150154    0.53427643980472   -2.51444863166803
N           0.59624382316149    2.06571351538368    1.28283278619895
H           1.11154459704799    1.44972049067916    0.61680916902555
H           0.27966556423545    1.36443341174499    1.98462863627498
H           1.18486446357726    2.78854861876052    1.68277009408282
