    26
        -50.46154433  Gyration_radius:  2.4335216656 Dipole_moment: 1.355
 S          -0.42594495282381   -0.96408304459545    1.86215505813513
O          -0.75942841443810   -1.99820136577962    0.88594053985208
O           0.98966375591001   -0.94483605896542    2.16471979341969
O          -0.95104435313851    0.33058476369463    1.46937759789125
O          -1.17095650328082   -1.34638240159147    3.20153612554991
H          -0.65155623164851   -2.06548558770660    3.54639174307429
O           1.92922532189666   -2.28731658992615    0.06770082284576
H           1.72514728728239   -1.81326182348342    0.89917418996632
H           1.22996059719147   -2.94088335657417   -0.01722426765573
O           1.30292340493238    1.35367205893297    0.56534912724140
H           0.44584409773803    1.08794852787939    0.96033680118439
H           1.96058292859338    0.96812850481304    1.15149370017116
O          -2.21773643513856    1.07939774214506   -0.76408469058802
H          -1.98332930649353    0.96405757002645    0.17616985601986
H          -1.57554146102512    1.76221407760497   -1.11620674943674
O           1.26908110745014   -0.30128060988323   -1.55925186006227
H           1.33399314861712    0.41420883251886   -0.88859631497962
H           1.68888078595119   -1.07987346092388   -1.12196965653484
O          -1.12713110139357   -1.04472261416812   -1.42964162255477
H          -1.69219041435225   -0.14033147633549   -1.23411334689036
H          -0.13787528262057   -0.72699173268396   -1.60698749327844
H          -1.07065526495287   -1.51464791659204   -0.52584694816942
N          -0.26043441767095    2.67242410751477   -1.61513420062869
H           0.18328551792964    2.28471718763497   -2.43878295176896
H           0.40021893911283    2.59650722190174   -0.84820218052551
H          -0.43498278362429    3.65443744454480   -1.78430308227092
