    26
        -50.45760682  Gyration_radius:  2.4951750485 Dipole_moment: 2.747
 S           0.57167262090913    1.09133045068145    0.71053122743660
O           1.75777279107402    0.34705939403215    0.33358902533838
O          -0.23553293973564    1.41594703200047   -0.47848989560626
O          -0.23419074948662    0.38492574995486    1.69904356220965
O           0.99582196426634    2.43446640415378    1.35538817418079
H           1.54926952719422    2.83294618944679    0.63014543347097
O          -0.14947940882260   -2.25755625731490    1.91999254461150
H          -0.08322935592479   -1.27741418629608    1.92098419930031
H           0.41571514476288   -2.56395472337408    2.63028654904355
O           0.92854116445820   -2.00873105928806   -0.58206874817898
H           0.56904785862617   -2.35626543166150    0.25343347264823
H           1.33060897541613   -1.14919992237920   -0.33635096721091
O          -1.08300710670141   -1.77921657546936   -2.18510404760070
H          -0.72876793601541   -1.55542100315386   -3.04708271075895
H          -0.28876221367399   -1.92605839970205   -1.58509877936640
O          -2.60314682011652   -0.73554386570358    1.36035669001831
H          -1.85839622845247   -0.17968556934939    1.67592994313730
H          -2.29059838706746   -1.64164222253093    1.46879741064235
O          -2.26528363551890    0.11290059745629   -1.00613442096289
H          -1.85669536369204   -0.67885968294437   -1.53936589434798
H          -2.54546993697995   -0.25929772808722   -0.08574412118902
H          -1.43194516635280    0.73927923578536   -0.79163700278973
N           2.31288087867309    2.85500620211986   -0.84696252734820
H           3.12843839390614    3.34581830730316   -1.19085766259742
H           1.56656406639282    2.94332356886392   -1.52480838131927
H           2.52817184281886    1.86584348545304   -0.75877305278638
