    26
        -50.46437092  Gyration_radius:  2.49455333765 Dipole_moment: 5.811
 S          -0.53029562421321    0.69505871769089   -0.69473557611814
O           0.69509691073918    1.47013871303963   -0.60231782120627
O          -1.63212482277252    1.23804378003913    0.07255026873964
O          -0.89494611446986    0.69126053838818   -2.20367567995327
O          -0.28006665711441   -0.71114276110446   -0.30856719094564
O           2.06630189944070   -0.69689209867505   -1.37823972982979
H           1.95969297709335    0.24399563647734   -1.58186850924107
H           1.15530745308768   -0.93457532742985   -1.07740783008520
O          -0.35562263912106   -0.07339193669251    2.26708890369318
H          -1.13312682672480    0.49281734129193    2.27185361987219
H          -0.33072423647319   -0.44187792069820    1.35992812020092
O          -3.04756808740957   -0.97458850703532    0.17398237521798
H          -2.29559683276494   -1.57521248711223    0.19031438551332
H          -2.64741921021951   -0.08254579957774    0.27002559108104
O           1.76615362934187    1.42413759873472    1.77418769331500
H           2.59850953995534    0.29888137161902    1.40306364849276
H           1.40323161284145    1.66447682442606    0.88645002986765
H           1.00441079607570    0.97521165171739    2.21094413117113
O          -3.27184733133322   -0.35690604117813   -2.38259573844932
H          -3.89827505123602    0.36848130034161   -2.43075336902838
H          -1.78616615850465    0.26270490463670   -2.33724677658463
H          -3.33968277605768   -0.71822217227016   -1.46351259960447
N           3.10888138290675   -0.61374221785298    1.00862654536596
H           4.11820418238946   -0.51876455142776    1.04564631603729
H           2.76187759745546   -0.70405424653447   -0.01520513901910
H           2.80579436706495   -1.42329233084529    1.54146431146954
