    26
        -50.46913953  Gyration_radius:  2.44633595593 Dipole_moment: 5.935
 S           1.20900380311498   -0.06014027780618    0.35120978555273
O           0.37584430454622   -1.23447815123704    0.59731643024003
O           0.37930250988851    1.05707309011183   -0.13253197362150
O           1.84523575674154    0.37589314570433    1.67953361889451
O           2.25828231821329   -0.34015070659029   -0.61478072958384
H           1.44865178093546   -0.50388651082143   -1.93143867389186
O          -2.02088047236683    0.91562802047039    0.82641249994481
H          -2.38452703472180    1.80273373150647    0.83743926717463
H          -1.12205618231925    0.99246593531230    0.42415213424192
O          -0.52098499082014   -2.17169276835101    2.93531846246115
H          -0.10125772782833   -1.97896053501617    2.07372201283545
H          -1.37788508303828   -2.55117941855722    2.73198753930837
O           0.69488223726901    2.22820638862700   -2.46706178155018
H           0.53325676627095    1.93693374595083   -1.53935918273690
H           1.52943554238971    2.69993379082095   -2.44914846581763
O          -1.39731625806785   -1.13831326256348   -1.30393984377007
H          -1.99005054441154   -0.45752284968394   -0.96656824872348
H          -0.79807759077867   -1.32739325775588   -0.54348075784991
O          -0.33533665930188    0.51674362143719    3.02248904803412
H          -1.03536796667817    0.66416123761318    2.35961282599213
H          -0.41213423772639   -0.42921929022154    3.26472711443279
H           1.05104961728426    0.49915340985730    2.29658526998809
N           0.72538673547152   -0.41687169789665   -2.71443617435013
H           0.67864303503466    0.61076581671068   -2.91944755404735
H          -0.20256605548384   -0.71743269082970   -2.29094256582732
H           0.96946641646803   -0.97245050683495   -3.52737007730067
