    26
        -50.46913947  Gyration_radius:  2.44631196484 Dipole_moment: 5.936
 S           0.41122809377385    0.71461622721687    0.95402852320784
O           0.96402602267504   -0.63204047597830    0.83293256461880
O          -0.68081416572493    0.90317965801456   -0.01678635219459
O          -0.18568586662182    0.87425633455719    2.36029431001399
O           1.42796940612279    1.73215324837562    0.74553604744447
H           1.72287145681433    1.58631942406748   -0.77351763261134
O           0.86684715292983   -1.10862153180295   -1.72265135395482
H           0.98700551070825   -1.08000824031998   -0.74389729768277
H          -0.06742960987848   -1.31668401872959   -1.83433728292393
O          -0.66921400985409    2.72044378936739   -1.91913712983872
H          -0.83415483018900    2.06535849048373   -1.20132004337598
H          -0.73212000457485    3.58211791025387   -1.50333347035950
O          -1.89070862698353   -1.33355806327193   -0.50145333352140
H          -1.44163438133412   -0.46550802584218   -0.35862442515797
H          -2.78383211858183   -1.12815456619399   -0.78338899737319
O           0.51874650382510   -2.75496848137580    2.39611867455483
H           0.84681568517913   -1.98931885889616    1.88444850331055
H           0.56264749553315   -3.50693199843684    1.80259516370768
O          -1.68496605190260   -1.20542221625232    2.28532240329983
H          -1.01501284998039   -1.87080060243059    2.54583958530243
H          -0.83925559613105    0.10333030179144    2.43215997033756
H          -1.84760509966965   -1.37018939622948    1.33794925486447
N           1.64611384259917    1.42076649490243   -1.82733707981091
H           2.50993328024386    1.63438209668461   -2.31446211018986
H           0.84358151667962    2.02328472051527   -2.13276406905755
H           1.36464725440418    0.40199778945145   -1.94421441259865
