    26
        -50.45289438  Gyration_radius:  2.64797775819 Dipole_moment: 2.992
 S           0.78868161044636   -0.14675703481802   -0.14871350582328
O          -0.20483268052748   -1.32386537312713   -0.18702023976602
O           1.00460170220154    0.33852780877372   -1.47870078805642
O           0.06805446452576    0.93049449315353    0.65515647320967
O           1.96563668756325   -0.56826382675859    0.57157362446898
O           0.67167460046897   -2.14974264874487    2.34586516279155
H           1.33481432618916   -1.78108253305140    1.73745336762211
H          -0.01549065832210   -2.51521939522685    1.78285937164994
O           2.80228755629834    0.90024379781016    2.69577487595554
H           2.69544473170886    0.32270916549895    1.91850584776159
H           3.25037185835569    1.69068435884978    2.39181931881234
O          -2.79359384148408   -0.13484495594077   -2.82595739590441
H          -3.48502660155626   -0.38776664770906   -2.21248485899225
H          -2.36954073223383    0.68744672197953   -2.45717806293402
O           0.20511844357832    0.36084251993655    3.06508260720580
H           1.12228464877777    0.66473571440688    3.23068627500959
H           0.06958018985476    0.71034540751991    1.70550291535940
H           0.26976783568318   -0.62364504006277    3.02654043945629
O          -0.60276090248979   -1.57218065973725   -2.63251500828788
H          -0.42225293752595   -1.51641751462233   -1.18955714728789
H          -1.47301556431027   -1.12172074174488   -2.81190720637919
H           0.08062308988975   -0.92912468552379   -2.86096177246039
N          -1.43292646437399    1.87484698835966   -1.70352094680682
H          -1.38067537307375    2.76989216948323   -2.17481211204038
H          -0.49955707596186    1.46714272211841   -1.71384130792828
H          -1.64926892369784    2.05271917916695   -0.72964992660611
