    26
        -50.46302234  Gyration_radius:  2.50658474856 Dipole_moment: 2.717
 S          -0.15254175256409    1.13149191382669   -1.70313857553155
O          -0.36076383565028    2.06546035069755   -0.61210434023669
O           1.05695239124178    0.33360224374826   -1.51083274388223
O          -1.30459227093105    0.32468474980780   -2.03263268495532
O           0.13127178639940    2.03677992922705   -2.97898297136529
H          -0.01390203950901    1.43293964988508   -3.70017071594291
O          -1.22821096783105    0.66910533493111    1.55568615032491
H          -1.02994759220988    1.28629378927617    0.83078177720074
H          -1.78045948361435   -0.01733125996416    1.15312247465296
O           1.25847199490629    0.00325000413854    2.25481887683310
H           1.76665616122883    1.03008009961750    1.35926743389692
H           0.29394528533312    0.19688665535586    2.20656846995855
O          -2.50676801303098   -1.06902043854475   -0.18924634091179
H          -2.04672547345444   -0.57147358357406   -0.91026263406224
H          -3.41471526989632   -1.17053684790625   -0.47961366820723
O          -0.86893900597407   -3.15959243584637    0.43434676488461
H          -1.06652008223448   -3.35834627229620    1.35120167538587
H          -1.49259023971100   -2.46016483911475    0.16196197547497
O           1.44789162189321   -1.73214742200888    0.29148035878919
H           1.39033954147925   -0.77803841880795    1.65581229984063
H           0.69535658592399   -2.35488452711436    0.27876894124943
H           1.32332115217469   -1.14719995486209   -0.47178050706245
N           1.97700954370248    1.70167779716903    0.49335797571776
H           1.13604486556069    2.28177230731204    0.32968829233336
H           1.95970024473527    1.08344629129193   -0.35342768924740
H           2.82971486202900    2.24126488374000    0.58532940486175
