    26
        -50.45780563  Gyration_radius:  2.41860249152 Dipole_moment: 3.172
 S          -1.13047281450775    1.32879849494237   -0.39611803721847
O           0.14217611187147    1.88292845717946   -0.81672327699582
O          -1.32158742544249   -0.03649599761544   -0.84773959423750
O          -1.34274328842809    1.47366943599384    1.03835932732926
O          -2.26632939913197    2.18045025804270   -1.08414543723349
H          -2.22892657063728    2.98454473991535   -0.57801404055741
O          -2.44246890372186   -1.70841184072061    0.86794380102045
H          -2.90466631800388   -2.36707811803858    0.34704745323443
H          -2.13690000996207   -1.02260507422429    0.23702125476039
O           1.00083044831432   -1.33833950109949   -0.55109261533759
H           0.11666155577354   -0.94790772069100   -0.70076484450186
H           1.47704423686441   -1.10776401634340   -1.37583292763886
O           1.96302113446028    0.78717103513038    0.76655598951362
H           1.88113997970335   -0.08467649389946    0.31877880545831
H           1.42700963912329    1.38334701943319    0.20100243838109
O          -0.03005119698587   -2.05564176832835    1.91345494200566
H           0.47887576357528   -2.08705640910133    1.08679930905953
H          -0.97812043071354   -2.06093841208944    1.64145701593397
O           0.29728465315696    0.34145796497643    2.57191128578073
H           0.14858267319385   -0.69737639031839    2.41783558647511
H           1.12059970072213    0.57613957337808    1.95636229650586
H          -0.46506589175355    0.81473771422850    2.07708216730435
N           1.80616753528619    0.20206293793185   -2.62777658884548
H           1.22425968963627    0.90574554915338   -2.17492422869029
H           1.43138079783218    0.05458390153418   -3.55678272041336
H           2.73229833978143    0.59865467062589   -2.73169735110574
