    26
        -50.46302218  Gyration_radius:  2.50657934017 Dipole_moment: 2.709
 S           1.42769794044739   -1.33101390118615    0.62682217715581
O           0.75389841617516   -0.51792139041504    1.63726214809620
O           0.48667704822047   -2.12522210718871   -0.14111555388887
O           2.36075276271446   -0.56808718196126   -0.16944729566943
O           2.29873533101547   -2.38531606537343    1.43749298307647
H           3.05667900865853   -1.87310877648221    1.69996809169181
O          -2.56728709949717    0.27005039613906   -0.00082762371069
H          -2.15115676786952   -0.85849962685617    0.81603310707718
H          -2.07349175906205    0.07220053802121   -0.82982598346200
O           0.38789824236173    3.19175410343291   -0.77384337613699
H          -0.28668739849915    3.50477858416616   -1.37891320171480
H           0.85276138084190    2.46453048000567   -1.22932542938671
O           1.50319568443035    1.04192505715809   -2.02881279030358
H           2.21014888615133    1.10807534144336   -2.67289001364557
H           1.84875428569723    0.45945113465157   -1.30741377670321
O          -0.81508964974078   -0.47504049633965   -1.86883996624243
H          -0.35006889677694   -1.17571908380078   -1.38046310293304
H          -0.12402763376381    0.15845227340077   -2.11252710495898
O          -0.77737119259197    1.75200976606768    1.22465226567969
H          -2.03054648313209    0.97216894651086    0.45253478262621
H          -0.11810757303372    1.07835528378803    1.45224672972017
H          -0.33083631458668    2.36997305926360    0.61387167136836
N          -1.57668903254658   -1.63104642019713    1.38034254188278
H          -1.08179952748744   -2.22432823835769    0.69181779345322
H          -2.13229024201594   -2.15765547980254    2.04416975752638
H          -0.77174941627628   -1.12076618606214    1.81703117941825
