    26
        -50.45816832  Gyration_radius:  2.42140430934 Dipole_moment: 3.474
 S          -0.77909251959949    0.71266096162838    1.23911869591364
O          -0.34615415056643   -0.66260049871414    1.42807032716551
O          -0.21431079393511    1.65785821307194    2.16693054691593
O          -0.63737905681808    1.11451052599889   -0.15417556841248
O          -2.34490921141673    0.71295832070471    1.54474365408819
H          -2.43184370464097    1.51000856941265    2.05674984883281
O          -0.85382163844586   -0.85469528595734   -1.90248098638135
H          -1.59821323806295   -1.36155521379168   -1.49888009685692
H          -0.85837119806119   -0.02006121367074   -1.38432672315233
O           2.32442903151199    1.15619705173729    1.64959396611914
H           2.79767123525373    1.94918545814324    1.90905466555639
H           1.38762857146115    1.30822028906508    1.88916784960235
O           1.00890816844371   -1.72158997624649   -0.45534807524699
H           0.30543308741796   -1.46953084131269   -1.19024279051814
H           0.55118258901929   -1.40626229581172    0.39001557680148
O           1.23345062522359    1.69555819175459   -1.98838440725947
H           0.80665691463512    1.33524888587335   -2.76917354079141
H           0.55785561716156    1.68412135127356   -1.28484703770602
O           2.78570639079052   -0.01458219073649   -0.69251541599867
H           2.76767192562879    0.38631312604396    0.20544704931671
H           1.85632043740044   -1.03925439204628   -0.58618580778826
H           2.35885552876229    0.65876734621445   -1.27707541795957
N          -2.55942341657778   -1.81598778265864   -0.08141790765465
H          -3.39272716478980   -1.24815264766535    0.01220696414940
H          -1.91126237667554   -1.49604951383345    0.63550239440529
H          -2.81426164312233   -2.77128645847473    0.13845223685619
