    26
        -50.46798683  Gyration_radius:  2.46920255594 Dipole_moment: 4.277
 S          -0.58685052473528    1.43347315651229   -1.51604701974257
O           0.79577043221933    1.18240389578942   -1.09454952140745
O          -0.98541176036632    0.47828651139923   -2.53545517423739
O          -1.49667766121781    1.52825235994776   -0.40600877298731
O          -0.57706393975011    2.85105327106020   -2.22092607532992
H          -0.18507069509376    2.64801720018826   -3.06355082670278
O           1.69754206411542    1.15085630373260    1.50215844450756
H           0.85908957428802    1.30726305368289    1.96275898170912
H           1.49434232528494    1.29984574463260    0.56342885601551
O           1.77380756133133   -1.49732793514373    1.54086417676524
H           1.92530745319508   -0.52792964742981    1.67230080953605
H           1.59612109040533   -1.52863618817134    0.09284835114353
O          -0.99619252464594    1.28655665561503    2.13993822943267
H          -1.19105029400985    1.42196853743339    1.18155915477085
H          -1.64760587116003    1.79866063353357    2.62069642536336
O          -1.42932002801655   -1.60144142925681   -1.06634540492155
H          -2.26845849147783   -2.00875989494493   -1.28771124281344
H          -1.35778475968869   -0.78876214821709   -1.62736248659849
O          -0.87724549669741   -1.44011121061128    1.72361515316000
H           0.83347488603795   -1.63258239278988    1.80759784472163
H          -0.99215627985760   -0.51420285388226    1.99863524176079
H          -1.18065422861022   -1.48207818330228    0.80516925489502
N           1.29342732725592   -1.39967887385290   -0.96826897597334
H           0.36045426796346   -1.81660085865650   -1.09402941628050
H           1.96620050724010   -1.78830126129640   -1.61859398983353
H           1.17600508598764   -0.36022444598059   -1.11272199693806
