    26
        -50.46154463  Gyration_radius:  2.43337033415 Dipole_moment: 1.412
 S          -0.78988916505893    1.65526252689095    1.10376373429938
O          -1.97865956982325    1.11044365224729    0.45342687770044
O          -0.47565550782197    0.95262785665742    2.33006851723814
O           0.32900173806889    1.74140402925029    0.18327606536887
O          -1.13372223270269    3.14214062075203    1.51166006086004
H          -1.66176629641923    3.03867212822174    2.29667725396397
O           1.62615383753183   -0.39305372040622    1.02192621659230
H           1.44119940521555   -0.39548486804391    1.96558426124706
H           1.25948881051827    0.46060875485473    0.70869987179473
O          -0.25435272318272   -2.01585213398094   -0.01867816934974
H           0.53744145256882   -1.53338848835303    0.30739369962941
H          -0.88383137036876   -1.98569301075704    0.74054184746486
O           0.55497593940905    0.91605246187215   -2.35117191650517
H           0.60108921236608    1.46574580041737   -1.54618716076272
H           1.29345869914962    0.24632498237973   -2.25860512792492
O          -1.87129281200597   -1.28215806930819    1.94986553644807
H          -1.34417571289728   -0.50909187334018    2.23633692720656
H          -2.64659370759335   -0.90366794195582    1.52673150251368
O          -1.40087251768863   -0.36159920760338   -1.52247967343971
H          -0.59762592002854    0.18290038552128   -2.00580115583678
H          -0.93239319965319   -1.13726953213259   -0.98433860103575
H          -1.73767254998228    0.26783988142599   -0.79347256199325
N           2.35537694654136   -0.97320325936657   -1.81885541526495
H           1.95067166332724   -1.89378278830682   -1.93862962729383
H           2.50050774255214   -0.83073439216539   -0.82437051923239
H           3.25913784790614   -0.96504379468444   -2.27336243361709
