    26
        -50.46154440  Gyration_radius:  2.43337256801 Dipole_moment: 1.425
 S           0.15620893013373   -0.13318388467764    2.13059720752651
O          -1.27762369717579    0.05722761770544    1.92826179153033
O           0.54210242192433   -1.52139351802675    1.98806832984006
O           0.93544753209995    0.77156890868039    1.30551608406562
O           0.46349350655130    0.26802316743561    3.62723122588257
H           0.17625833243544   -0.49229410921503    4.12237629216668
O           0.15484749736107    2.51456778414728   -0.56631936499911
H           0.60545198256204    2.11730998640742    0.20287353282410
H           0.61809850260939    2.13753735287421   -1.37006503602493
O          -0.91658655805594   -1.04896138823976   -1.47978258814118
H          -1.26107880516149   -1.72230321847675   -0.84616475785081
H           0.04906515206777   -1.02210760440894   -1.29933696414522
O           1.61309582001896   -0.96403136691137   -0.55765363111259
H           1.70773722448270   -1.78154483250808   -0.06024725557429
H           1.48511709873786   -0.27863708286965    0.13162788801990
O          -1.57506595124899   -2.45326528064568    0.67035475490640
H          -2.26140352041045   -1.94819412327541    1.11448538111260
H          -0.75989888506368   -2.26000067355035    1.17598214304011
O          -1.80629829253641    1.01422550149094   -0.35446556508388
H          -1.03313150964525    1.76315427442836   -0.48973921035975
H          -1.49825746788541    0.18483077780478   -0.92637268490819
H          -1.69352197023383    0.69776386011089    0.60881826786340
N           1.28431847682055    1.20298956944909   -2.59012076533045
H           1.97392635154018    1.65764371208904   -3.17426209641623
H           0.57808031530516    0.79861966989352   -3.19286973288875
H           1.73961752271166    0.44045489051359   -2.09879324593207
