    26
        -50.46961825  Gyration_radius:  2.44252812462 Dipole_moment: 5.989
 S           0.20691659560420    1.71518692734467   -0.87804521441328
O           1.48454481840408    1.38073782115507   -1.47948750941832
O          -0.89503951594762    1.00932783872844   -1.50844516184972
O           0.22682956552197    1.55836835314835    0.56753025699181
O          -0.04201464272339    3.25023787417449   -1.14132549524478
H          -0.15103549541011    3.25741615808809   -2.08565936889846
O           2.51254178594526   -0.94596938082404   -1.03667261188228
H           2.15581848650526   -0.04592386058983   -1.26249827406457
H           3.28238028084498   -1.07505034056825   -1.59231540605696
O          -0.27345457927815   -1.56513815016081   -1.03480305626176
H           0.67496849973173   -1.61507669468518   -1.20597504706636
H          -0.53922770017785   -0.65867461615177   -1.27627667516421
O          -3.21075866275024    0.09319428382277   -0.45919830634875
H          -2.46443531276611    0.52773065571964   -0.91056608551522
H          -3.20968942313329   -0.81378002979194   -0.77303281654965
O          -0.48261907057152   -1.92146271292551    1.61953877117109
H          -0.56167913076414   -2.00966165393809    0.64559812126303
H           0.78481450547624   -1.18448552027474    1.65647108206581
O          -1.85101507570923    0.30121630619970    1.88113878722300
H          -2.53451636754262    0.25026727066333    1.18434188692422
H          -1.10854041194331   -1.18462325333933    1.85545907277376
H          -1.18083985921719    0.90686209243400    1.52618069169053
N           1.62766511731641   -0.48238841814327    1.49399303058906
H           2.19911304625830   -0.36021612687308    2.32176637841149
H           1.16798028058179    0.41932837646198    1.20839960493858
H           2.18129226574228   -0.80742322967596    0.68388336469128
