    26
        -50.45325149  Gyration_radius:  2.5962874962 Dipole_moment: 1.558
 S           1.01852134374921   -0.12745133345859   -0.26329378814364
O          -0.19664864394673    0.35324281657688    0.54107723179786
O           1.56973911639028   -1.26365037101072    0.40263492338562
O           0.43977332807294   -0.54265539974600   -1.63380670740821
O           1.90525427466314    0.97699238470872   -0.50264492404357
O           1.58452528348711    3.42886434444172    0.52616833456715
H           1.86329895347575    2.57266990583415    0.14705212695450
H           1.98791008949232    3.48777738431931    1.39308501267266
O          -0.15643068514512   -3.25000366240851    1.00944250818477
H          -0.75893420855383   -2.77481979993078    1.62760038688156
H           0.63091925691928   -2.68133665489143    0.94353440800892
O           0.35926870955840    2.02279438531399   -2.63570117332549
H           0.36300483881621    1.06190547003956   -2.52070106318360
H           1.25406313609892    2.30677751151495   -2.42592794169691
O          -0.81279948848646    2.59710701079948   -0.32273674110801
H          -0.51468243836207    1.30574250439319    0.18682784784097
H          -0.09739213014471    3.14027159971700    0.06985939652826
H          -0.56881797180987    2.51497349935057   -1.27590336286721
O          -0.99092003506229   -2.56611231649259   -1.30962632891944
H          -0.17399138117580   -1.37451608375423   -1.50882525762378
H          -0.72090589725646   -3.24555958841558   -1.93141168042244
H          -0.73414277987046   -2.90860655448124   -0.38566092966109
N          -1.70079529307694   -1.49691299258789    2.39713882604272
H          -1.27787948790630   -0.72743919553115    1.88652259487286
H          -1.57859389937949   -1.32051003197295    3.38608169661813
H          -2.69334398052956   -1.48954484229572    2.19921463404786
