    26
        -50.46206239  Gyration_radius:  2.40741537317 Dipole_moment: 2.077
 S           0.37303489095448    1.38380359602471    1.08999023201544
O          -0.99816309067738    1.13801312823535    1.50192174369619
O           1.20011046326627    0.19364188454901    1.26258506767822
O           0.47491718986775    1.92772736483986   -0.24719248246027
O           0.94321335281973    2.48026623013812    2.07069008784763
H           0.66054024219247    2.14846455518938    2.91586467928733
O          -1.42056771577711   -1.34818607715835   -1.00920612226729
H          -0.34972585018784   -1.39425281471567   -1.03669565604298
H          -1.65573788633282   -0.37423146842441   -1.20650291017261
O           1.06657424308524   -1.26676788135450   -0.93987624801860
H           1.32150012977183   -0.64953322478849   -1.68103589019095
H           1.22092543773083   -0.74399308568224   -0.12175342634285
O          -1.85590494239224    1.16971187752051   -1.15703911145250
H          -0.97671501267460    1.54206461751337   -0.91486064494960
H          -2.40867384809637    1.35411319745552   -0.39124346280644
O           0.56479416710808   -2.21326406841869    2.24040232491823
H           0.90135010816547   -1.32282277349654    2.01900826338261
H           1.01607325028186   -2.81813511249663    1.64767048882705
O          -1.83103059814328   -1.36201815247296    1.44775164778932
H          -1.67194214999417   -1.46502241705185    0.02194148274661
H          -1.07382268350849   -1.83938623082461    1.85683614120373
H          -1.62977503098572   -0.40894749306350    1.58991969403565
N           1.52347852056502    0.70881095310793   -2.65004272805751
H           1.28209736700012    1.36935133689820   -1.91274680381750
H           0.87315944195187    0.85077884533622   -3.41264768477070
H           2.45029001401083    0.93981321313614   -2.98373867207616
