    26
        -50.46961716  Gyration_radius:  2.44273625132 Dipole_moment: 6.029
 S          -0.57707324414553    1.35799224848279    1.25526745996318
O           0.73640550531970    1.96178190140088    1.38462024493669
O          -1.18215320451820    1.63859312122553   -0.03492656266026
O          -0.56057949867064   -0.06023043355506    1.57592973500091
O          -1.50391203624380    2.03365000694045    2.33798256899105
H          -1.52665474886095    2.93012896213086    2.02275834841691
O           0.54883150263532    0.49711148052865   -1.74866552512912
H          -0.09903749954801    0.96522671574312   -1.19023447305168
H           1.41667819539026    0.74030543931935   -1.40376562895086
O           0.39070347685364   -2.15140107767125   -1.33081022202517
H           0.41362688380858   -1.25911403044154   -1.73817756835451
H           1.16052919159826   -1.84419984503547   -0.12107123316360
O          -2.85452588873366    0.14300532698350   -1.54079994270491
H          -2.37464083361642    0.77357101777131   -0.97355321567658
H          -2.41533102956239    0.17652214937872   -2.39350017481949
O           2.71068124423589    0.96014863205554    0.05579662209205
H           3.47867760485419    1.52759823270391    0.13413073690608
H           1.98552301967067    1.40293134432924    0.57205228659849
O          -1.87133585661080   -1.88590793069400   -0.02874145536930
H          -0.51890512830722   -2.22201252484964   -0.93356075008123
H          -1.54623489326345   -1.30400607353838    0.67663517707579
H          -2.41518707082344   -1.30691719814348   -0.59815457799109
N           1.58280989306332   -1.40013216361846    0.80326123749389
H           1.98637577994514   -2.09472610215660    1.42081269886784
H           0.76953495877519   -0.91053779072576    1.25565732662895
H           2.26519368677403   -0.66938143853479    0.54105687695833
