    26
        -50.46206238  Gyration_radius:  2.40738783916 Dipole_moment: 2.077
 S           1.48214568050990    0.53945976437221    0.86877905281196
O           0.60500462699762    1.64437003240750    1.21524155185008
O           0.92036166498105   -0.73795344840921    1.29652700943061
O           1.85568383339593    0.52843449962037   -0.52930130033978
O           2.81129090835768    0.75053686938693    1.69214677019978
H           2.47190456430517    0.94938968653102    2.55793332293504
O          -0.61953576104407   -1.68443063309146   -0.63591208561985
H          -0.04167832196222   -1.70072815891703   -1.44901228961930
H          -0.00988884022922   -1.43194563718651    0.09280731431096
O          -1.98703366698515    0.38238228216192   -0.87117371894105
H          -1.47303360984791   -0.55682003668672   -0.81273100616782
H          -1.30381802055017    1.04325369426856   -1.24431564413278
O          -0.09297126609543    1.99752801141763   -1.46714945938424
H           0.70475230876723    1.47191253304484   -1.22704848586157
H          -0.14301794730428    2.67435918763417   -0.78495188764190
O          -1.34833100950450   -1.26288096146610    2.61206211327854
H          -0.44157494996605   -1.13435840806870    2.27082819275688
H          -1.68934075145738   -2.03894394911909    2.16228371618312
O          -1.95363322345772    1.08839635860287    1.51752817509146
H          -1.92234618540277    0.26392291274712    2.05405700832239
H          -1.02585091515977    1.41738009501090    1.51341439640626
H          -2.10827533340461    0.69024278370706    0.14397312687677
N           1.11306810351475   -1.33264154588868   -2.61336362189864
H           0.81540261996237   -0.81989611116651   -3.43380216304711
H           1.75499748473886   -2.05494175280265   -2.91318121792256
H           1.62571797683481   -0.68602806811673   -2.01563885987384
