    26
        -50.46206238  Gyration_radius:  2.40738301382 Dipole_moment: 2.077
 S          -0.41030042120663    1.23835335899954    1.24126204817195
O          -0.31039186995089    1.72011724780630   -0.13288464655878
O          -1.55660057701877    0.36242777203478    1.41151955209573
O           0.82811132786760    0.64819283290498    1.70205031844057
O          -0.67621045885306    2.50167538435626    2.14814054610386
H          -1.57889064386111    2.70774465072718    1.93130891131904
O           1.11704589953980   -0.00568065743896   -1.54195336332713
H           0.64171573552436    0.71235482323161   -1.06767936188293
H           1.97400940137066   -0.10910448328707   -1.04171733046417
O           0.11484366054503   -1.86598342671009    1.62979241177314
H          -0.77785896088970   -1.80268996851181    1.98345222030003
H           0.48162208411538   -0.95815255892947    1.73748172974011
O          -1.90766600218559    1.27257241709577   -2.23088185331357
H          -1.37324699991611    1.59982989908962   -1.48090596908690
H          -1.29030833521071    1.13956894727112   -2.95340782465038
O          -0.23460949997488   -1.99595492643395   -0.90247314163204
H           0.37836683139701   -1.19067411366592   -1.25674649316925
H          -0.02377103272944   -2.08021903634947    0.09312221590321
O          -2.44974693361799   -0.86778569198591   -0.74161998540426
H          -2.27251476513595   -0.41738390372195    0.11555645660671
H          -2.44556690634511   -0.14366186101095   -1.40812342988991
H          -1.22940129984547   -1.60848607798594   -0.91833001935430
N           3.12442828090950   -0.22501011297769    0.17800672153842
H           3.40180070179727   -1.14894798275705    0.48465276476370
H           2.51873822518957    0.16870643991932    0.89656044335970
H           3.95640254848368    0.34819103832569    0.12381704861289
