    26
        -50.45289442  Gyration_radius:  2.64793382842 Dipole_moment: 2.991
 S           0.69685010107267    0.29037446591170   -0.31056809069188
O           0.80368085383402   -0.32024798514025   -1.60157132110510
O          -0.54413030338148    1.20292839059818   -0.27590358962155
O           0.39886311749569   -0.79298558763575    0.72063825212643
O           1.83831354069083    1.05814008855647    0.12459724713854
O          -3.16713088993565   -0.87610829481476   -2.24153933360112
H          -2.50526453583721   -1.52530260222147   -1.87750141545409
H          -3.79026453830479   -0.69258434619483   -1.53689150880517
O           0.50802991043809    2.55317403338298    1.94614552590342
H          -0.32912217466834    2.67570484317431    1.49118183435514
H           1.13238139075235    2.25587993280538    1.26231947410562
O           3.33744638444580    0.12478918976874    2.18661843153781
H           2.96995767510635    0.54878739047522    1.39017836157727
H           3.90550704775328   -0.58463322215939    1.88330866479500
O          -1.37873182615932    1.01243672120841   -2.61411858582369
H          -0.60807426252150    0.50642524225621   -2.90186961727411
H          -2.13428095129490    0.36413829592233   -2.57928983901354
H          -0.96006671783972    1.20085139322998   -1.23339633676488
O           0.78274153532109    0.12986223062893    2.99040269326574
H           0.60141581673854    1.08889826421439    2.84110686004510
H           0.51703318850712   -0.43074325031653    1.72390505166096
H           1.76045062705129    0.06062196560202    3.00741478220064
N          -1.20265672160763   -2.36083406830972   -1.19900695396507
H          -0.40750341358818   -1.76679699249417   -1.42781299644056
H          -1.01610680521415   -3.28089867410139   -1.57942799056696
H          -1.20933803883372   -2.44187743437448   -0.18891958960663
