    26
        -50.45970195  Gyration_radius:  2.46837370922 Dipole_moment: 1.799
 S           0.65571472363642    0.87112813791271    0.72278679661207
O           0.43159855296298    1.08558196281404   -0.71220831206285
O          -0.55114687278826    1.09762508723593    1.48919938141385
O           1.21676503384282   -0.45910544579822    0.94994029614742
O           1.74633818882209    1.88134262516564    1.17296969729091
H           1.29102662924732    2.74446749469680    0.98481133613947
O          -2.65483606491011    0.02213303822398    0.35932161406837
H          -1.86886117764125    0.46853730737235    0.75538862775154
H          -3.20179603297826   -0.24231733852448    1.10177488424528
O           2.27342804686797   -1.86944299178182   -0.96996747396150
H           1.97598070185208   -1.35141011679867   -0.18015623645408
H           3.12858302157919   -1.51434125273728   -1.21694066835006
O          -1.64567485799674   -2.02043924052570   -0.93723917710296
H          -2.13963903820887   -1.25237724210270   -0.54232707095538
H          -1.15907560573375   -2.42396282939644   -0.17054376641268
O          -0.15033243025535   -2.72972857040382    1.10368267651666
H           0.29959094466939   -1.86670814622627    1.22096042103053
H           0.54639211940435   -3.36137834554170    0.91211203434062
O           0.18179176649940   -0.93338284945545   -2.17372865662007
H          -0.69711151948976   -1.46472540095745   -1.68150425750092
H           0.24473072037414   -0.04137290226597   -1.65798839426416
H           1.00638090992014   -1.42661495867580   -1.87606532658456
N           0.01434031085898    3.67089558885906    0.43795690606545
H          -0.20001971222156    4.65593957061115    0.34392988006449
H          -0.68074606619975    3.23419896333855    1.03360323767941
H          -0.06342228211673    3.22545787496463   -0.46976845910575
