    26
        -50.46220855  Gyration_radius:  2.42269874287 Dipole_moment: 2.970
 S          -0.56300567782163    0.87529773680461   -0.70127464989340
O          -0.18223108784553    1.12813371155074    0.69608031428116
O           0.58785642862167    0.40306034215970   -1.45859481767276
O          -1.67695712167466   -0.06098858768630   -0.76823061518001
O          -1.05084182956584    2.21105379451481   -1.30503317661669
H          -0.21206660427855    2.75452674872173   -1.35075559225007
O           2.28396013836429   -0.17630248132488    0.48464831210437
H           1.97570866390489    0.49129233452469    1.10506601253611
H           1.75592856354862   -0.01067312503106   -0.32649810601405
O          -0.33463461000350   -2.31920399644095   -1.09492820370410
H           0.33805773613873   -2.10805939431584   -1.74718757148041
H          -0.89925656412653   -1.51896131207452   -1.06114412100186
O          -2.90776594212382   -1.43700709747642    1.09979356834830
H          -2.66300473751706   -0.85073953687390    0.34982244954284
H          -2.87783993009261   -2.33284901675756    0.75448056175812
O           0.86408130260884   -2.25862433766635    1.26368064612125
H           1.58138849310738   -1.61487276468539    1.03253124711316
H           0.42356857053453   -2.46284915774877    0.40074915890875
O          -0.76582638383222   -0.71173713749528    2.29874637451097
H          -1.67960331722449   -1.03085229512673    1.97960942019880
H          -0.03899572543472   -1.45793184419592    1.93713835436894
H          -0.55777454600875    0.12018549009484    1.71785806738171
N           1.38984367238896    3.12315498062561   -1.33214699031654
H           1.63376508521740    2.16243910472687   -1.55480341470993
H           1.75103520388408    3.34294953215368   -0.41349067593292
H           1.82461023923908    3.73955830902487   -2.00611656239054
