    26
        -50.45150882  Gyration_radius:  2.46629973332 Dipole_moment: 3.786
 S          -1.35887989967632   -0.03266532215386    0.43099124750339
O          -0.61874023568760   -1.23384376566093    0.04241375222956
O          -0.47590185561671    1.12754260918482    0.48178176943516
O          -2.47552433483660    0.19531435652736   -0.49113025472950
O          -1.96248706540251   -0.25621707019053    1.82409851721412
H          -1.18250089541456   -0.18719873847802    2.45593342820212
O           0.08326840342031   -0.24330077255359    3.37233819182702
H          -0.05058176974350   -0.91888260445913    4.04040172510863
H           0.80590172556465   -0.58562971915504    2.75914179423345
O           0.08199093277930    2.24502417339460   -1.81847782771027
H          -0.20718828218419    2.02632022935179   -0.90060034359004
H           1.00933174840861    1.97839904486760   -1.84234866307289
O          -0.25351039185627   -1.54105357576568   -2.49153392326493
H          -0.67841117421502   -2.36692023224823   -2.73104910068059
H          -0.31039414378515   -1.48025510813424   -1.49763515838499
O           2.16251311718121    1.27917009912619    0.03591912914023
H           1.22697484541107    1.15018814784713    0.28983627566312
H           2.47278984172460    2.01255077630124    0.56984687990255
O          -1.58607871702289    0.59708345474793   -2.75049304619808
H          -0.90178063398287    1.34493382118411   -2.53220251350421
H          -1.03946764971190   -0.27008830412245   -2.82676885191988
H          -2.09211696582031    0.45977659328198   -1.80971936589192
N           1.74940770513772   -1.24269101952961    1.59833960271924
H           2.32621380569222   -0.53994294301750    1.14576943323010
H           0.97643945949914   -1.42950680275558    0.95873372907574
H           2.29873244013479   -2.08810732759276    1.68641357346786
