    26
        -50.45150885  Gyration_radius:  2.46633037996 Dipole_moment: 3.784
 S           0.82864977696987    0.06454819168441   -1.15826314937550
O           0.63420982522688    1.20086959612848   -0.25681247832368
O           0.21654338934508   -1.14194534540752   -0.61224501808181
O           0.29063425902584    0.37308173628542   -2.48660382251354
O           2.33473515787024   -0.17752175379977   -1.32639287321182
H           2.62561861441212   -0.59784491336750   -0.45967355420327
O           3.05536481475100   -1.08477258992171    0.96254503185205
H           2.38924994628555   -0.64245704023708    1.57589535372303
H           3.91210288356765   -0.70639511859567    1.17122477480320
O          -2.37154814802947   -1.36270562470874   -0.93459442261580
H          -2.60366631618894   -1.24611893871032   -0.00502448931268
H          -1.39078247471772   -1.47204578382827   -0.92536338661627
O          -1.64097475515678    2.39754910448565   -0.45687441787874
H          -0.75694477339666    1.96992928906106   -0.28245745284349
H          -1.45204486593448    3.30462498109548   -0.70475056433886
O          -1.07207327615713   -1.49630683214308    1.71092224655527
H          -0.50566628345547   -1.33885073220936    0.92944742789521
H          -0.93214659275938   -2.41510334315882    1.94627211583073
O          -2.13623695583330    0.74133569364534   -2.30764891659158
H          -1.09213779304490    0.58031080406843   -2.51690824564650
H          -2.40208599866689   -0.12434786654315   -1.80285093679728
H          -2.09881740149524    1.48158675531642   -1.59531156405302
N           1.26710219978561    0.26463096065907    2.34155805478308
H           1.44370382330875    0.92108053391089    3.09132650553090
H           0.45233701636816   -0.28687049723689    2.59335400059055
H           1.00487394790657    0.79373872349689    1.50922978082711
