    26
        -50.46206229  Gyration_radius:  2.40775396765 Dipole_moment: 2.100
 S           1.68442678807007    0.09309769174251   -0.62267851792950
O           1.51341256329398   -0.57253042687515    0.66495675936289
O           1.09414931596971   -0.68197324765809   -1.70017158036229
O           1.22339113860931    1.46450173188254   -0.59169933285285
O           3.23551693470455    0.14202586966267   -0.90699535801501
H           3.42270460195101   -0.76674095808579   -1.11544274076260
O          -0.78908635892274    0.19183776714731    1.72048590923671
H          -0.75256430415156    1.18872620224874    1.73645746339774
H           0.10807409688095   -0.08097051657054    1.42521489972334
O          -0.84389122217540   -2.34497690480451   -1.04664490833417
H          -0.48242653540240   -2.77428241599983   -0.23822387384514
H          -0.08905857850362   -1.83014196600003   -1.41292330637986
O          -0.98416573743274    1.16609039907883   -1.95978910646182
H          -0.67960793672131    0.56619206179006   -2.64786798917254
H          -0.16370318408689    1.40938430026990   -1.47204371483729
O           0.37736260035855   -2.92233806739980    1.24902281582966
H          -0.11682921466879   -2.73578947121331    2.05018184522345
H           0.93723106460895   -2.13674302437295    1.09238275393220
O          -2.15654370078887   -0.37023849488912   -0.28221745333805
H          -1.82471739844248    0.31611386522444   -0.96195679869579
H          -1.71233223313508   -1.28411355499168   -0.60885352644795
H          -1.65135949861658   -0.13260852633256    0.63335977826988
N          -0.44054541338611    2.79683834758330    1.36146416822725
H           0.27855957475233    2.57961203673358    0.67307180998093
H          -0.02545036172639    3.38987327860348    2.06837716214456
H          -1.16254700107044    3.32915400322336    0.89253282211460
