    26
        -50.45198896  Gyration_radius:  2.60450251793 Dipole_moment: 2.750
 S          -0.67327343483141   -0.19008811980576    0.14066362787306
O          -0.34378810578078   -1.59200359848648    0.01524833238823
O          -1.43693910149172    0.26023370400461   -1.11023620862551
O          -1.65739264741221    0.04250053677754    1.25427027682713
O           0.49223388607376    0.65068494180382    0.32088418270400
O          -0.01802564108331   -2.92318591885196    2.29447586220779
H          -0.04092794358086   -2.51950087736818    1.40192412183056
H          -0.63607879511831   -3.65615009477035    2.27600708347704
O           1.66607349094677    0.57582331397118   -2.15248989706941
H           1.21216200201935    1.36197041448002   -2.52466340404098
H           1.47645333746646    0.61637303569559   -1.20139371725703
O           1.46047101389887    0.81653852889004    2.79507507273633
H           1.23944620368370    0.77029428601247    1.84214509896027
H           1.53172361186450    1.74784092241547    3.01169795034600
O          -0.16080602003445   -1.19231252540974   -2.68587741379825
H           0.65399235256602   -0.61015038725657   -2.65883823139899
H          -0.01746721719734   -1.87487230573820   -2.01814924602907
H          -1.02704686992368   -0.32577684269262   -1.87029693045524
O          -0.65440146904608   -0.62445174431710    3.38986391126559
H           0.18458731219698   -0.09590345028887    3.36884089617571
H          -1.25579232081892   -0.24346167150169    2.26871870373728
H          -0.38927652381661   -1.55628529770496    3.17475537897536
N          -0.16139465746370    2.51291294020086   -2.82124134372447
H          -0.53556515517786    2.49615526734271   -3.76166910497785
H          -0.06752444423801    3.48046058332892   -2.53952931052628
H          -0.84144285370530    2.07235436926680   -2.21018569160081
