    26
        -50.45390673  Gyration_radius:  2.46837630825 Dipole_moment: 1.696
 S           0.27311301761883    1.21614013901069    0.48831006160343
O           1.41960713907642    0.32551929721499    0.48972135980893
O          -0.91344243870524    0.51551377859708   -0.02361960781984
O          -0.01515242018302    1.75865045285474    1.82240749870447
O           0.54696989651705    2.42901751821258   -0.40865721550272
H           0.80738471270834    2.09522618831034   -1.32878397241760
O          -3.02296035633111    0.23860527009804    1.47899344269511
H          -2.32238430662052    0.33783904380444    0.78599975246541
H          -3.51207127819041    1.06330927769751    1.48882351387438
O           1.03390846610145    1.54223515283845   -2.75314312034548
H           0.56048573151249    2.07893764531602   -3.39222039065091
H           0.56240854857615    0.65532874229985   -2.72320698446725
O          -0.25820016029597   -0.66885079064525   -2.35525531064338
H           0.47935411370114   -1.26278573068709   -2.08483654885180
H          -0.63010183892954   -0.31928564348964   -1.52531827041559
O           0.15350317647631   -1.65074887925920    1.61483203753915
H           0.75657002690241   -0.97658577062529    1.21338789131460
H          -0.43792391549918   -1.91940115722935    0.90579779376972
O          -1.09167717791951   -0.01807201475571    3.11240166409967
H          -0.59760850915623   -0.80422137485544    2.67161850941768
H          -0.57445916271334    0.83756233837853    2.65798534768868
H          -1.99677695690061    0.02187592739442    2.63832006155304
N           1.95508846063502   -1.87123808342564   -1.33303336490241
H           2.04720539440730   -2.71751014967889   -0.78467525598706
H           2.02962541705396   -1.08102816942739   -0.69450992991179
H           2.74753445014296   -1.82603301793757   -1.96133897264290
