    26
        -50.46437127  Gyration_radius:  2.49446599342 Dipole_moment: 5.804
 S           0.30059930633510    0.11494778109198   -1.06951214798581
O           0.69211726001221    0.28925441358655    0.34663547260848
O          -1.09212546503829    0.48332265695627   -1.25813329768996
O           1.11002198233422    1.15261404771862   -1.89317003659354
O           0.62323051233215   -1.22362695736474   -1.51867963979897
O           2.83609272081721   -1.48226212243324   -0.12366719436644
H           2.54717681176104   -0.94814127432454    0.62317159055002
H           2.03091935521202   -1.57846911824641   -0.67827585032507
O          -0.79673568806892    2.37820078231690    0.61179186066367
H          -1.12494559924376    2.24881078771795   -0.29029723643768
H          -0.06032031813285    1.71993922122457    0.64613971399703
O          -0.46322451794800   -2.00861822616205    1.00530780445629
H          -0.14098044792829   -2.56524958240550    0.29019010807812
H           0.01822405852923   -1.16356507466341    0.88947040982882
O          -2.73018364592557   -0.88516193714879    0.23870563258927
H          -2.26155212781049   -0.41129676328715   -0.49160989508962
H          -2.05122214528836   -1.52389932608824    0.56033692944556
H          -2.68074075368497    0.13475688372832    1.26552595551399
O           3.57776837984308    0.32114390738050   -1.90300544062969
H           3.49979271468634   -0.36949398528781   -1.19824301989377
H           3.71349359005295   -0.15230477430560   -2.72656367381165
H           2.07632895184656    0.90406658513653   -1.89862239670314
N          -2.47767234600360    0.95141575669307    2.00089837518122
H          -1.80767455725958    1.62964283861577    1.48324569772833
H          -2.00564653894670    0.56175721611250    2.81113424072839
H          -3.33274150247871    1.42221627343279    2.27722603796334
