    26
        -50.46220853  Gyration_radius:  2.4224712841 Dipole_moment: 2.967
 S           0.87904238480230    0.28774779333303    0.84949987259843
O           1.56348521725246    0.11357016094599   -0.42420642514397
O          -0.32546560762357    1.11142747180077    0.66997826811559
O           0.54055856387922   -0.98985952413615    1.46195597275050
O           1.81547287493060    1.03076626439218    1.82812641963196
H           2.10986775882663    1.82468712439191    1.29514039415935
O          -1.77559525859880   -2.06658967058181    2.07398196616773
H          -0.86039882978516   -1.70827653416299    2.06868232933926
H          -1.72334478191754   -2.92851672982805    1.65315704731065
O           0.28222260721736   -2.46840367672977   -0.71872827448569
H           0.44251470054604   -2.00746650216029    0.13107398925207
H           1.03172626591460   -2.22321441736575   -1.26701019402567
O          -1.80824780792748   -1.16113861309122   -1.68054472076563
H          -1.31791291203480   -0.39235863089809   -2.06904485234348
H          -1.10007217094314   -1.79532835372747   -1.40362686130175
O          -0.28330333304258    0.94544737124345   -2.12273967901989
H           0.48205871811430    0.60718719710605   -1.60886120854566
H          -0.69383764789898    1.58790965977894   -1.53597407663952
O          -2.46988793586630   -0.17853308276900    0.49145981082189
H          -2.35853949564730   -0.92992300026636    1.17096481717617
H          -1.64172894701095    0.42815082468559    0.62889114445715
H          -2.28703719863383   -0.63216661300052   -0.49669241925789
N           2.36405977793876    2.80403211522774   -0.00045012692988
H           3.23417876963920    3.29324062168262   -0.16426143271071
H           1.59747516734146    3.43424376857057   -0.19537370960356
H           2.30270912051302    2.01336498555706   -0.63539805100109
