    26
        -50.46154472  Gyration_radius:  2.43322366874 Dipole_moment: 1.367
 S          -0.16180179890313   -1.91644715813107    0.93914402802590
O           0.96677235750785   -1.49086958198757    0.13211534021209
O          -0.23723665165055   -1.25077348855839    2.22257483037087
O          -1.41804227091950   -1.81762498261369    0.20043521437014
O           0.07120998507948   -3.44997625759089    1.23767213363740
H          -0.53217546612390   -3.63073507699676    1.95126508652024
O          -2.35987766527374    0.30177896092136    1.81309936304694
H          -1.59618842686321   -0.23147374808162    2.11328536868215
H          -2.89374448765262   -0.30809724549192    1.29695091188069
O           1.03987191052745   -0.43504808207171   -2.32490910891157
H           1.45041397261530    0.45639988422342   -2.12704898761978
H           1.23725348358291   -0.98983198852636   -1.54680717635642
O          -1.01458511312273    1.75856426606883    0.05389125748858
H          -0.12383906965755    1.59090105522299    0.43411461106934
H          -1.63694458470939    1.42705424640540    0.74408560767933
O           1.26696330374301    0.89998276789081    1.19806923984619
H           1.28530390527593    0.00012594416150    0.80922095666556
H           1.02690157011801    0.75303582603673    2.11758829529403
O          -1.31403606575858   -0.07768709847793   -1.63432054489080
H          -0.32950400388693   -0.23084874436863   -2.06088734106888
H          -1.43221598520479   -0.84631810390089   -0.97373654820885
H          -1.22467657074585    0.77078351559612   -1.01525417450563
N           1.91760323080654    1.94914969388927   -1.52503358500764
H           1.19519692946868    2.64976193384174   -1.63904137294951
H           2.78306862489126    2.32761821182970   -1.88723817373836
H           2.03430888684501    1.79057526067615   -0.52923522149901
