    26
        -50.46975350  Gyration_radius:  2.44540229147 Dipole_moment: 3.760
 S          -0.91517925684328    1.23171028111368   -1.12147538121798
O          -0.43029004846006   -0.01428015269035   -1.72192811530862
O          -2.31650931276126    1.18354619295546   -0.78447523564416
O          -0.06221433625573    1.63989571702724   -0.02250423156744
O          -0.77587144002566    2.32662832816548   -2.26141671655329
H          -1.63861079355706    2.72391674202915   -2.22300603331393
O          -2.58845680646630   -0.56053961135110    1.22265256271028
H          -1.53371471633440   -1.46825056937343    0.62836412504110
H          -2.70415972327954    0.09751141211694    0.50646913099013
O           2.38526703628867    0.59181998647559    0.27410032276340
H           1.57575029657873    1.13549276745919    0.22033712703662
H           2.53657914404074    0.29505555289983   -0.64397561539021
O           2.15357426209554   -0.02211421733178   -2.35780747431835
H           1.18499885887394   -0.05102312019323   -2.21764804785763
H           2.31131510038617    0.69527723222854   -2.97344430120473
O           1.43509161727697   -1.32611368957334    1.71847939054365
H           1.86467733534684   -0.58764197699257    1.18434097640921
H           2.15316545903169   -1.83883390215059    2.09012620339431
O          -0.56240527572909    0.63002568909885    2.45053605132184
H          -2.03279005971045   -0.09768275516415    1.89240562538149
H           0.16271788567572   -0.00580711112358    2.50149744788149
H          -0.37851910683838    1.16886707538570    1.66082602513978
N          -0.66246853830508   -1.87746268301056    0.11764252550961
H           0.16557281583064   -1.80417135452988    0.75105569747702
H          -0.51565414583632   -1.23353663091382   -0.70232075916459
H          -0.81186622101812   -2.83228918255963   -0.18883131005658
