    26
        -50.46975343  Gyration_radius:  2.44532529545 Dipole_moment: 3.765
 S           1.74338673947946    0.41419675440136    0.63050815605276
O           1.60108291876676   -0.01316394633037   -0.76433466696212
O           1.83865812542498    1.84628867523364    0.77089181754754
O           0.71979290449170   -0.18928028840364    1.46101495283170
O           3.14186925277220   -0.16652288893716    1.10484483745378
H           3.52906899969418    0.61261904648048    1.48803949816874
O           1.40754437820485   -2.64478050696448   -1.10705977349312
H           2.19088961418839   -3.05172433609287   -0.73374391097275
H           1.55127723433685   -1.67790289334026   -1.05068524136856
O          -0.54076533824343    2.86430061607155    0.10145310720277
H           0.38422689225177    2.69914239900243    0.37783362829975
H          -0.71219017066237    1.84257626384240   -1.00151458447743
O          -2.44870977346528   -0.75030160346669   -0.46648249895107
H          -1.80461830140970   -1.40343822927829   -0.04974397431147
H          -3.18983887837453   -1.26922928662052   -0.77973310910135
O          -0.67824958912825   -2.30300800325188    0.59299176007035
H          -0.17235418072320   -1.62195734820223    1.07675597726633
H          -0.05299071109130   -2.63256234076514   -0.08099551587692
O          -1.68920842510369    1.05320106532044    1.66070175757481
H          -0.83698426709635    0.60099156766856    1.79095457599474
H          -1.08568333552226    2.43004769723084    0.79863117883305
H          -2.20698811503368    0.46631161172253    1.09488751897295
N          -0.69426996646519    0.94286604065210   -1.61593358785496
H          -0.78514100784976    1.15207081747033   -2.60380983313255
H          -1.44843911289288    0.29649154516306   -1.29089069116603
H           0.23863409345331    0.50276758136652   -1.40458137859851
