    26
        -50.46489332  Gyration_radius:  2.55408396653 Dipole_moment: 4.644
 S          -0.59748404239204   -0.31426531079734    0.47560937404905
O          -0.69046523385720   -1.06700384556827    1.80300520126429
O           0.25579759191505   -1.06541585859057   -0.44543782590403
O          -1.93686259844886   -0.14929529166043   -0.05230572358525
O          -0.00364403680010    1.01562447169499    0.74270853462893
O           2.73172325045868   -1.48131499365038    0.36044007776779
H           1.84519177074848   -1.29007558599346   -0.01762433006221
H           2.96059067288066   -2.36509951347320    0.06799874353099
O          -2.62685170438092   -0.83358321308269   -2.50381240515031
H          -2.46116923339518   -0.62263648259213   -1.55668116514664
H          -2.92865021972082   -1.74267612476824   -2.51965075819659
O           1.39662607922523    1.52681344161367    2.96099883742859
H           0.73147726379085    1.78896350183368    3.59973642769820
H           0.93204518096513    1.43649431523829    2.10412506627778
O          -0.11275501560716   -0.00273718350809   -2.82337784897201
H          -0.99435531200879   -0.38793690870756   -3.01425452896590
H          -0.52720184875496    1.25774149044701   -2.14450974551944
H           0.18728117676954   -0.49195980747695   -2.02248247161486
O           1.63428827043248   -1.14284552625039    2.77150751576722
H           1.74813330387794   -0.19463966612598    2.99427525356933
H           0.25293762091525   -1.15025424323647    2.22522520983903
H           2.19915248811947   -1.29649274583910    1.98160738506181
N          -0.91172349240704    2.01091574760854   -1.43908520482445
H          -0.68540277538505    2.96358443995344   -1.70689633587550
H          -0.48193677815940    1.73018594901669   -0.48973327421281
H          -1.91674237879030    1.86790891390776   -1.35138603885705
