    26
        -50.46004795  Gyration_radius:  2.42147952837 Dipole_moment: 1.656
 S          -0.12350720581111   -0.50847834605065   -0.70221366206454
O          -0.76801865636872   -1.92004031842190   -0.80986963122091
O          -0.69149581995323    0.36823971980884   -1.70128999739087
O          -0.41433591185015   -0.02967559483246    0.65875485390245
O           1.30497749569704   -0.73344728981824   -0.88356151258284
O           1.52951075316345    1.53968376978348    1.52677505259356
H           1.64690346086096    1.96739108798784    0.62812458798403
H           0.65200990176017    1.11276400013585    1.44049557903752
O          -2.81274230781858    1.05961327760141   -0.28227523477760
H          -2.37251879447734    1.02580680065675    0.57297064053428
H          -2.08263031335288    0.99592570113121   -0.93094875833114
O           0.62327103690438   -2.04666490875953    1.96987486957028
H           0.44381892748447   -2.81905227366148    1.42890465736990
H           0.07440948974052   -1.32432298992343    1.58968851422278
O           2.63587413023262   -0.64531400172197    1.20858344279052
H           2.03118948098880   -1.27554348656831    1.71868972175146
H           2.22856296161163   -0.72575114895732    0.25189057102392
H           2.28402363048765    0.36629616100838    1.46368010277703
O          -3.30937043661552   -1.47010382830844   -0.82734409658952
H          -3.30564422424360   -0.51380674612456   -0.56396262403978
H          -3.63319511143586   -1.49668941471153   -1.73036835662295
H          -1.76578280416769   -1.81687608021798   -0.80511666355554
N           1.49098440479763    2.22143825503087   -1.02713996856521
H           2.30923543532460    1.87342752645962   -1.51245797370265
H           1.31197354168128    3.16096615363005   -1.36136653681122
H           0.71249692532933    1.63421396490046   -1.32051757732250
