    26
        -50.46448226  Gyration_radius:  2.45208474318 Dipole_moment: 5.475
 S           1.90767090087088    0.01683682787667   -0.70427708895626
O           2.00679103710868    0.98875722476669    0.36834229605590
O           1.62987600324312   -1.32246408127802   -0.17977120231742
O           0.99790979072127    0.39977164515754   -1.75644011400242
O           3.34514607675034   -0.06610748111006   -1.35952692389102
H           3.88714196803484   -0.12054641216941   -0.58084202009834
O          -0.02497146368159   -2.15800223634580   -2.12311136999869
H           0.09074105494334   -1.40666988812966   -2.71283274923697
H           0.64584904699237   -2.01623584688258   -1.43056799659210
O          -0.26641314648239   -1.59195679899260    1.56939469647449
H          -0.14503843395203   -2.43851566167214    2.00229567330624
H           0.47367441102197   -1.51345871032442    0.91188447309558
O          -2.06187869973388   -1.34242098112227   -0.54811838638229
H          -1.48124631233630   -1.78756436416433   -1.20267880769275
H          -1.60879163420875   -1.46079096872142    0.30170293559652
O           0.30665495943828    0.93529566439954    2.34210956629168
H           0.01581616058991    0.00611890520080    2.27896342368675
H           1.04986433405546    0.99961027648533    1.69344927699661
O          -1.47947331637833    1.11223784526197   -1.23091781423429
H          -0.55082784555374    0.94754298037613   -1.51177644099869
H          -1.83793565801920    0.20368909966284   -1.02314906284306
H          -1.44547009579450    1.82331954599306    0.00221920410396
N          -1.39623076505063    2.34653515207795    0.99500394483923
H          -2.31877885052106    2.38705662414938    1.41494991759672
H          -1.02735087840947    3.28235648764748    0.86345471368195
H          -0.71272864364711    1.77560514186062    1.62023984552079
