    26
        -50.45667403  Gyration_radius:  2.4128367919 Dipole_moment: 4.274
 S           1.78031848346748    0.23605925043732   -0.36997858305398
O           1.76396530217185   -1.21523546210632   -0.38632539684502
O           0.91878201679151    0.80078067347134   -1.40012428161971
O           1.49779592342294    0.79732867087702    0.93843283228848
O           3.26077841525176    0.65621071256017   -0.72587104071888
H           3.52332285203534   -0.06975067089943   -1.28029037769469
O           0.24853323957762   -2.44835617141995    1.45298885785494
H          -0.30300040174203   -2.81525839028744    0.73123482204415
H           1.02435064387964   -2.10274964141785    0.96825869388914
O          -0.50738036747727   -2.79521407515094   -1.08916941392172
H          -1.06050694757870   -2.04047605769762   -1.34027324265782
H           0.40019470307735   -2.46895328626578   -1.15601190926804
O          -2.17812606207293    0.80757097664310    0.75587733775513
H          -1.69550766274873    1.66679795652462    0.57221693144744
H          -2.10897394202482    0.31178268904454   -0.08395250256507
O          -1.45444183789055   -0.25119734455933   -1.62128161735873
H          -0.54143257682665    0.13044721165393   -1.57533325308827
H          -1.83546683578266    0.06370998401825   -2.44253373291719
O          -0.44354226433763   -0.17009982809394    2.23748399876258
H          -1.27614620975130    0.20552607673301    1.65781221675933
H          -0.27674910879367   -1.17715443288988    2.00965555983703
H           0.36929914087363    0.28787154328112    1.83022026275494
N          -0.51275870307923    2.76703384916066    0.14826573273346
H           0.06997437812677    2.20851880221722   -0.47492723970241
H           0.05901280569518    2.97244759735881    0.95873288367798
H          -0.72229499426558    3.64235937680390   -0.31510752839429
