    26
        -50.46555149  Gyration_radius:  2.45811300011 Dipole_moment: 6.219
 S          -0.78854181434828    0.84689110550707    1.94568819198288
O           0.24270676970875    1.47988592672993    1.13777041311251
O          -1.99636910416140    0.55359920159214    1.20565119936669
O          -0.28329397997190   -0.32012172286055    2.65443307500155
O          -1.18844611164869    1.91033380035594    3.04925619177446
H          -1.97875401457749    1.50275772653569    3.38424706647772
O           2.30735675426503   -0.07435626458340    0.59288436040788
H           1.94361021428651   -0.93109798091347    0.86016717950067
H           1.66459011635032    0.58384546059227    0.94139858134665
O          -0.13808453107851    2.15454963643535   -1.40484598281473
H           0.83849503969332    1.09802884314943   -1.77517404394902
H          -0.02077734952921    2.13215761616740   -0.43156440085837
O          -0.32245550863989   -1.85958654562644   -1.51368113123021
H          -0.08667592886005   -1.95585972405001   -0.56231831487192
H          -0.70013053792972   -2.69526558128027   -1.79054846129897
O           0.45792468102875   -2.12907849788527    1.02949115813898
H           0.38312895548953   -2.95442865281733    1.51136671980614
H           0.11960568097652   -1.42440659632927    1.65963876896232
O          -2.09188600418406    0.38578653812385   -1.44188640199351
H          -0.98690087781330    1.66733788719485   -1.55260375820355
H          -1.60922321017826   -0.44308767722593   -1.56435289957126
H          -2.21213302265926    0.46503097252985   -0.47283351174284
N           1.47801431032253    0.20981475212840   -1.87950914861367
H           1.95409396438377    0.09058243321839   -0.92903115779496
H           2.14911344949592    0.31041780026235   -2.63145465855209
H           0.86503204957035   -0.60373045693874   -2.02218905438185
