    26
        -50.46555147  Gyration_radius:  2.45803622569 Dipole_moment: 6.217
 S          -2.04160748062270    0.91511519742524    0.34333027134641
O          -0.79642070531518    1.48968942470356    0.82926083936297
O          -2.03665393360166    0.65791951456729   -1.08018697028587
O          -2.43411406397763   -0.25803519775117    1.11090227405924
O          -3.15370078074845    2.01485551544169    0.59379699017148
H          -3.85942190323948    1.64940090281181    0.07288442578898
O           1.21887630417155    2.13249203202778   -0.78109557914436
H           0.44262474769438    2.12425239178314   -0.18214794789334
H           1.99543564466196    1.02757521410060   -0.16119814796995
O          -0.72938208392963   -2.12763334087091    0.86475954814002
H          -1.41660626954194   -1.39748528365103    0.91641122034391
H          -1.21247312475447   -2.93971020108115    1.02649874669403
O           0.66819699505558   -0.15932529876718    2.28175067498912
H           0.06500077540782    0.53144957099908    1.92547443028045
H           0.22028216587367   -0.99501821643369    2.08500227027316
O           1.06288324486117   -1.87257385151543   -1.10288913744274
H           1.07372189965679   -2.69561408400293   -1.59292777523696
H           0.36382740919397   -1.96121394887369   -0.41480344075331
O           0.18169055893665    0.44799519488580   -2.52256598932329
H          -0.70870121249356    0.54976327610063   -2.12664276194240
H           0.89235044107488    1.67890786358310   -1.59804817496963
H           0.50252470967479   -0.40294922341142   -2.19398356102637
N           2.37722471512196    0.11086696813259    0.31030788038101
H           1.79987332683508   -0.00983103487948    1.20284425028622
H           3.36982197435053    0.16744408413765    0.50391709421590
H           2.15474664564953   -0.67833748947636   -0.31065143034477
