    26
        -50.46814328  Gyration_radius:  2.48743914511 Dipole_moment: 4.357
 S          -1.34328305493115    0.33885214354460   -0.06871581895513
O          -0.86007676174150   -0.95322913235772   -0.57278133909678
O          -2.09277303207470    1.05789428562508   -1.06704809259801
O          -2.25471872706979    0.08623160065656    1.14055757557717
O          -0.18357144630141    1.12510448926461    0.41182433201094
O           0.45729093003685   -2.44078693509794    1.12201422591405
H           0.03291463498905   -3.29974580016125    1.15870684790513
H          -0.08151127195034   -1.89701879756465    0.49648254533513
O           1.54332498818554   -1.56076657938957   -1.55005191985833
H           1.89396371458888   -1.98718309344788   -0.76148797692154
H           0.58440953561452   -1.46510621091531   -1.36733333496676
O           0.62994424226825    1.50629087481923    2.91273086660579
H           0.39581726244336    1.44474270992661    1.96331338972981
H           0.12638297506331    2.24229537847735    3.26452100525037
O          -0.68765667706173    1.29574366656425   -3.23566524100325
H          -1.31021981649848    1.29673081501786   -2.46235519486894
H           0.69317083771071    1.23645725728485   -2.40654949685315
H          -0.93295348120242    0.52991035542945   -3.75878594454997
O          -0.71336680097610   -0.82716949236045    2.95673619159820
H          -0.14844587227675   -1.46090046019152    2.47215784350971
H          -0.14600678830929   -0.05115424145554    3.14642217614281
H          -1.68498419105497   -0.29626133007094    1.89121013114516
N           1.39248254185920    1.08078584619643   -1.62740506620233
H           1.70262026998109    0.07604101724552   -1.66181489551327
H           0.82107326269010    1.18754972341602   -0.72695016544965
H           2.16617272601739    1.73469191953931   -1.66973267389216
