    26
        -50.46489351  Gyration_radius:  2.55416300922 Dipole_moment: 4.638
 S           0.54503822045652   -0.11386280873312    0.60949731906849
O           0.50411808567276   -0.49975271574573    2.08831244596012
O           1.92883060155943    0.07555424408824    0.22352229576613
O          -0.09544506920616   -1.16565709131753   -0.18057056874097
O          -0.19289812586882    1.15963912408362    0.44687834697443
O          -2.61877409456094   -1.66458721604502    0.40050122176477
H          -2.72529666235830   -2.61431950960075    0.32465347629991
H          -1.70569712583496   -1.46750182686412    0.09573323435260
O           3.02944872294346   -1.10529644552259   -1.86189999522356
H           3.40212379048004   -1.94931711100934   -1.60350091424869
H           2.70845516911023   -0.68830051187218   -1.03004102845501
O          -1.94267604519717    2.03302474593904    2.26869679154049
H          -1.35090050909360    1.78989044854683    1.52786817455384
H          -1.40306323208537    2.52091041610798    2.89322639109200
O           0.52935107547649   -0.68484805492537   -2.69025179717508
H           0.72994136918368    0.74460354795179   -2.31782708956303
H           1.45903167286336   -0.99654344745233   -2.66563888066301
H           0.15660408331186   -0.99422163891402   -1.83226081736663
O          -1.92363133783036   -0.60978500073949    2.75359609869080
H          -0.48091755488130   -0.58720810847452    2.39982425607193
H          -2.14904136912475    0.34341846515410    2.70553456873964
H          -2.35033821827205   -1.02059406078019    1.96890804701695
N           0.94020391234539    1.68866243799481   -1.79160405044271
H           0.67640619373831    2.51184882919334   -2.32391705143557
H           1.92953390211331    1.69320953497050   -1.54774628527687
H           0.39959252505732    1.60103376396235   -0.86149418929620
