    26
        -50.45701656  Gyration_radius:  2.4629726462 Dipole_moment: 2.271
 S           1.85082072163161   -0.46466117049383    0.41231082858785
O           0.94402542879861   -0.76965066986930    1.50754557344570
O           1.92334888814906   -1.50066785027457   -0.59246913960028
O           1.56977107578073    0.84876444359332   -0.15674675574014
O           3.30017465747338   -0.37920855107175    1.04485185506362
H           3.79433099228917   -0.84478586738847    0.37970855407765
O          -2.03411318039432    1.26306202785899    0.53164894937045
H          -1.39680780850130    1.57845992533215    1.24001859983602
H          -2.05450762661896    0.29100502853728    0.62992791561278
O          -0.46143353905945   -2.26759135349740   -1.48650623251629
H          -1.00498872839957   -2.10889910608319   -0.69875941044913
H           0.46264053860252   -2.10519976076496   -1.20359278994157
O          -0.85294415969019   -0.26307865989784   -3.07351559284624
H          -0.15772749748133   -0.31808127724584   -3.73110220735685
H          -0.77472833905637   -1.09496308987798   -2.51708262826135
O          -1.50987347869210   -1.37429854666631    0.91268848304372
H          -0.57450363117693   -1.17723285267797    1.17446559325702
H          -1.87497815949984   -1.92038068882262    1.61061836002446
O          -0.49784297199084    1.59335757527040   -1.38443687596617
H          -0.68240634184774    0.87985179901416   -2.10673427221243
H          -1.24950880882406    1.49289974961823   -0.60602409291487
H           0.37699305586747    1.33030599647161   -0.92330408670696
N          -0.03054672127478    1.82981700773995    2.15261516473065
H          -0.06050068830868    2.07279530861463    3.13468706829143
H           0.57788274512020    2.49090914298265    1.68517936380527
H           0.41742356710647    0.91747140960275    2.06400776536336
