    26
        -50.45153924  Gyration_radius:  2.45886552334 Dipole_moment: 1.682
 S           0.11586192509752    0.40487252818471   -0.82433653686207
O          -0.32472894909944   -0.21532231164822    0.41672889121374
O           0.77375317454062    1.67465160917729   -0.61524923156782
O           0.94304071142871   -0.52974466803692   -1.60875255897063
O          -1.15572221131383    0.60913568625655   -1.70488140252010
H          -1.71830503843842    1.35290062001836   -1.32380395516516
O           1.86286205001767   -2.27058478319290    1.35318619156925
H           2.71778111978754   -2.67120987135743    1.52421298357525
H           2.03152891145157   -1.31585269023647    1.17909991806364
O          -2.46259826295762    2.56020146656322   -0.64417896482780
H          -2.03444626020679    2.54438030816194    0.25995589694029
H          -2.13606889868585    3.35146626875842   -1.07809853852215
O          -1.82622788206628   -2.15619397535840   -0.36947349447047
H          -2.24965486420894   -1.79249491930562   -1.15115816802493
H          -1.40598269290070   -1.38300231763447    0.08673092748148
O           2.68249110781864    0.14646689160215    0.50090799569006
H           3.12671512439936   -0.08226739342822   -0.32011657793341
H           2.01083337579523    0.80014214728569    0.23704948103266
O           0.59550952099456   -2.81422693210698   -0.79963373589148
H           0.78746704603618   -1.83075609197160   -1.24735796261214
H           1.05848404384182   -2.71938705770113    0.10785281526785
H          -0.41156593802974   -2.76189783557497   -0.62211098305847
N          -0.97073980077366    2.37082785820046    1.52738685115809
H          -0.13302693656317    2.39527486940845    0.94919986827611
H          -1.06883772116948    1.40205373097161    1.81151460052261
H          -0.80842268472622    2.93056686294915    2.35532566966645
