    26
        -50.45153947  Gyration_radius:  2.45865123781 Dipole_moment: 1.672
 S          -0.13886548256236   -0.45799220527867    0.79376204483194
O           0.16702208059462    0.45571904003597   -0.29730689972328
O          -1.55188796848429   -0.73713760409918    0.91308491937311
O           0.66569964867604   -1.68830777321432    0.68434320143099
O           0.37800301175736    0.21207918240165    2.10427019770580
H          -0.21441486701984    0.99036412768631    2.34583721170482
O           0.97344904943089   -1.22298727087512   -2.82955364562450
H           0.12391772168855   -1.32287699094762   -2.34118817943104
H           0.99170988569015   -1.91930128521737   -3.48944167308613
O          -1.25098630736395    2.14003221650678    2.62218587806665
H          -1.66676696654300    2.22415453610060    1.71594078853785
H          -1.92560588578687    1.75943672977217    3.18886381545610
O          -1.17650840543303   -2.01784773477537   -1.42014827336917
H          -1.45304375841897   -1.48660045047438   -0.65248866691989
H          -0.85837181491839   -2.84020156061159   -1.03745722481926
O           2.63882370803575    1.06912386301389    0.09664695945937
H           2.70163116078705    1.08747691317174    1.05492962189661
H           1.66835783671326    1.04893566728927   -0.10374376839922
O           2.55620677236203   -1.30401208191322   -0.82290581575500
H           2.78747717976495   -0.34881723633978   -0.53625911029731
H           1.75905950461655   -1.55576194845668   -0.11099369453900
H           2.03256389240900   -1.22841460872508   -1.69844249041862
N          -2.26995218738749    1.92496988900916    0.19486782761784
H          -2.38339150120522    0.92296832594747    0.33563829102382
H          -1.46846828957917    2.01764921971555   -0.41983690931065
H          -3.08565800780712    2.27734903029702   -0.29060439539538
