    26
        -50.45153905  Gyration_radius:  2.45926896393 Dipole_moment: 1.686
 S           0.09544664155730    0.90090671347507    0.18446252756860
O          -0.49367514526183    1.64859659699953   -0.90308515624872
O          -0.19990764329143   -0.52286576706551    0.11817905057282
O           1.54813158014096    1.12683533739000    0.29392045050357
O          -0.46739744748900    1.41777783070682    1.54453406963466
H          -1.47367581660402    1.44827176554482    1.50758028108884
O           1.29529776886397    0.30086156408537   -2.38799081514094
H           0.53517253854711    0.74621710997137   -1.97317897724010
H           2.03454358050932    0.89402052268533   -2.22800728257778
O           0.58690241563974   -1.41869838904529    2.40289401108921
H           0.11348304523689   -1.21137050153646    1.55716570725565
H           0.37623789545158   -0.69480134710666    2.99803381221258
O          -3.02999176168861    1.48773987705409    1.28512063332920
H          -3.22960459892878    2.36809444995040    0.95912952404978
H          -3.11027402112136    0.87663770875611    0.49690028473446
O           2.19933443543354   -1.98605711538279   -1.29596886584679
H           1.68869045266312   -1.24189596655647   -1.69065573992555
H           2.92569418226248   -2.16618785125885   -1.89647580491658
O           2.65367043853883   -0.94239501360923    0.99344397729963
H           2.24045116598020    0.03468936959320    0.71064176716096
H           1.95157258927230   -1.27255258741650    1.66128717379856
H           2.51560470350551   -1.47900656501271    0.13332842502857
N          -2.83985254606509    0.03179438923811   -0.91061377503406
H          -2.14016935895378    0.67674451581753   -1.27259927531982
H          -3.45655280856743   -0.23465686726495   -1.66820173553467
H          -2.31913228562557   -0.78869977000879   -0.61984426754913
