    26
        -50.45201963  Gyration_radius:  2.50263876484 Dipole_moment: 2.542
 S           0.51791828273622    1.18546258373083    0.56556050616547
O           1.11251667989745   -0.13660669265711    0.75007557615844
O           0.74069671213203    1.68275396908072   -0.78242747254256
O          -0.91016644800374    1.15866238120628    0.90228431893989
O           1.16767501329908    2.15810687846267    1.58605460955073
H           2.11603493402893    2.16929169990535    1.29122774226769
O          -0.68415794205991   -2.08721532124995    1.01002125938541
H           0.00040124453000   -1.38385227922147    1.03707880608945
H          -0.78715621154456   -2.32362778186308    0.08154039959711
O           1.11521901351042   -0.65749623684907   -1.86304075823873
H           1.40747153590934   -0.89548221240133   -0.96811675043373
H           0.97389413367638    0.30915411156534   -1.76357664245776
O          -1.28199930012602   -1.61285706256187   -1.80853683001513
H          -1.56718222450993   -1.84895454709915   -2.69256958676958
H          -0.34148034698855   -1.26159654287042   -1.89674345630516
O          -3.00175865561586   -1.07235610945219    1.67170543136905
H          -2.15044792311250   -1.57858074965150    1.55672116278100
H          -2.80025577567709   -0.37659758231195    2.30348204397897
O          -2.64359198041803    0.13368645739785   -0.49490268077623
H          -2.15156570414611   -0.54537833400011   -1.07095404835596
H          -2.98658202611443   -0.39860510130626    0.34402291830472
H          -1.88214732751468    0.70209656755782   -0.00098461487916
N           3.39608691276520    1.78131370908108    0.27208169020681
H           4.28313817326034    2.23231836926645    0.08788834601816
H           2.79923058893196    1.87213116195502   -0.54454606597846
H           3.55820865110947    0.79422865430260    0.42665410595728
