    26
        -50.46292989  Gyration_radius:  2.50927786713 Dipole_moment: 3.630
 S          -0.89038364974965    1.84346608238057   -0.12791277861653
O          -0.10819106681084    1.71681830158536   -1.35983140948260
O          -2.18406922881582    1.20809783850034   -0.22661090754601
O          -0.11622337837345    1.47373091345311    1.03852532903670
O          -1.17748618957478    3.40005098176347    0.03148325981431
H          -1.93985803372264    3.53229646947115   -0.52248470049175
O           2.32889707965071   -1.08548835197967   -0.21492835952989
H           1.61199963129066   -1.22565404906042   -0.87494800584536
H           2.40532942095648    0.36513989248339   -0.22765229190295
O          -1.09631472667220   -2.75645683849411    1.51115573913885
H          -1.58861370537361   -2.26220156221961    0.82926644670377
H          -0.73406720795017   -3.53078832681825    1.07708504428817
O          -2.28441727469833   -1.37840698796363   -0.52610007521564
H          -3.17500325471843   -1.57805717978854   -0.81955074554721
H          -2.26748319226857   -0.40397556814353   -0.35753324247155
O           0.16410327564217   -0.95702093697545   -1.77375705716312
H          -0.66582008936263   -1.31709990600235   -1.42840149593104
H           0.03538559861465    0.00685324392978   -1.78846223217067
O           0.87821213942882   -0.93730846362735    1.96697811478463
H           0.42991073525877   -0.09220117390435    1.80995668957121
H           0.17331323987472   -1.61355821417365    1.96521020367279
H           1.88375313512332   -1.18850306402033    0.66798610588194
N           2.19154305667622    1.46008936284388   -0.17876583430838
H           1.61717186956898    1.60307977924267    0.67135414640667
H           1.49180714932018    1.66971840668899   -0.92839629148041
H           3.01650465668112    2.04737934083858   -0.21366565160104
