    26
        -50.45650395  Gyration_radius:  2.43692702511 Dipole_moment: 2.864
 S           0.54643595927793   -0.19927695982719    0.59910082586331
O           0.13973407901890    0.00556902986150   -0.79594113880712
O           0.03386981946686    0.87278372728827    1.44797645629091
O           0.09153749959258   -1.51425444140060    1.07249736881584
O           2.06845405823878   -0.23346899049526    0.66392698504199
H           2.47491016503770    0.69306578153660    0.31789657211766
O           0.58349625030021   -2.59822775914022   -1.48813344019155
H           0.72219369888750   -2.99212982588714   -0.62288625227542
H           0.67723383252460   -1.64408972400474   -1.34049405357747
O          -2.54367913864922    0.60346420126047    1.54799397222783
H          -2.82084321257365    0.77199203387351    2.45065586929281
H          -1.56722652282933    0.78815019604631    1.51885961161524
O          -1.87978182196552   -1.44409458558157   -1.76787428581270
H          -1.26916757922486   -0.69762991300678   -1.59086482783879
H          -1.27034959976002   -2.17038375796992   -1.99225323037281
O           0.30229057507878    2.69743916123495   -0.50934472974514
H           0.10276434616506    2.38356113863558    0.38687640477606
H           0.11690419976011    1.91702226396429   -1.05043776402078
O          -2.32805820922672   -1.77247445236161    0.67287608390773
H          -1.29066779752082   -1.77891978870342    0.91358369953765
H          -2.60903603448375   -0.85417885560910    1.02345705466539
H          -2.29906353304774   -1.69612989968763   -0.38173299809349
N           2.95384677875419    1.98217184614092   -0.17906957373147
H           2.07914814996250    2.48170022762891   -0.38885056413278
H           3.50638504710047    1.90017444729835   -1.02156062608238
H           3.47866896010728    2.49816487892038    0.51374257051178
