    26
        -50.46489351  Gyration_radius:  2.55404936932 Dipole_moment: 4.639
 S          -0.59930883185976   -0.10523507410524    0.55855941705367
O          -1.70451842383690   -0.92733163380360    0.10869145925571
O          -0.87385732742949    0.32788413622684    1.99885218453393
O           0.66886048728574   -0.83318544114412    0.50800253075187
O          -0.51562412284993    1.11298508273338   -0.27911142049866
O           2.79499062088578    0.50439542700720    1.31062206668125
H           3.34230089043877   -0.12593162911934    1.78206231913873
H           2.04890848904390   -0.01144623756162    0.93272140327592
O          -1.39373404765266   -3.31395279084122   -0.96998035106263
H          -1.59079093838237   -2.46559378816854   -0.51130251585734
H          -1.40203207372299   -3.98700530172994   -0.28818059420188
O          -0.06025688043722    3.53008538773278    0.76689516738314
H          -0.19726427376603    2.69160203604697    0.28071765696648
H          -0.93355585155117    3.85094701135991    0.99857647193730
O           0.96868664505715    1.91698839550547    2.65331357850704
H          -0.12029269959221    0.96211007527817    2.32287403945053
H           1.76590833537497    1.51425033627036    2.24243009629641
H           0.73653254837941    2.67947449516397    2.08195506073876
O           0.75474940954467   -2.00005774377654   -1.84793788615165
H           0.11934920776519   -2.72540305517973   -1.66840838402819
H          -0.18491056604586   -0.95599302222862   -2.34730237374431
H           0.92325418709980   -1.61181391618782   -0.95814981364616
N          -0.96164822555385   -0.18195361065395   -2.44681171054567
H          -0.77873039212517    0.48639939549087   -1.61928457024828
H          -1.86223865439199   -0.62235949417735   -2.26443150240529
H          -0.94477748168460    0.29014093986633   -3.34537235958844
