    26
        -50.46489351  Gyration_radius:  2.55406759003 Dipole_moment: 4.639
 S          -0.69840838769477   -0.39310481616676   -0.20077199008711
O          -1.45761673947601   -0.88741446273460    0.93014618676048
O          -1.45392104924654   -0.74655080051514   -1.48202106775884
O          -0.51529760481120    1.05698828126064   -0.13410930597667
O           0.61962016072504   -1.06666891914905   -0.24445548028969
O           1.69205589489318   -1.94929900174211   -2.52800813657209
H           1.33144587256784   -2.83205480398131   -2.62764394679587
H           1.40668231002631   -1.63553152827048   -1.64580691127467
O          -2.12415762857819    0.60794197072528    2.99755913730710
H          -2.97057020499849    1.02836770146776    2.84041317281742
H          -1.97499569250998    0.01055996808720    2.22956229504704
O           0.83280604827880    2.13759949168149   -2.12616326415173
H           0.39057795251289    1.77658243785104   -1.32645325239229
H           0.40894649948372    2.97807971326554   -2.30789550653729
O           0.26207481895214    1.58916443679718    2.32189253685625
H           0.03132002373209    1.58357092576400    1.36398754710684
H          -0.60346946563113    1.47971528510960    2.77011777358286
H           0.77425792888886    0.19224161493993    2.41260435404574
O           0.00771863235695   -0.05230058229489   -3.41332930790172
H           0.72622339816497   -0.71312235228582   -3.31964964124781
H          -0.90089426487105   -0.44946880103239   -2.30720228260365
H           0.39212821857576    0.79883190566977   -3.10617935866813
N           0.94761401899241   -0.88848566302183    2.29237673619512
H           1.80779053808402   -1.20743320994747    2.72708036616119
H           0.93658073973089   -1.04269303481295    1.22416194581932
H           0.13148799185303   -1.37551576666852    2.65978740055929
