    26
        -50.46302175  Gyration_radius:  2.50706434591 Dipole_moment: 2.708
 S          -0.73819349698941    0.25568025329953    1.89599845858601
O          -1.68373078154179   -0.01354088900816    0.81443857348809
O           0.03341678988515   -0.90905050292506    2.26365024871165
O           0.05025136389020    1.44623093639871    1.63720957748862
O          -1.62849347655342    0.61132302711823    3.16446736347537
H          -1.88891183815917   -0.24654560622195    3.48376141166683
O           1.97792998637710   -1.72761685470704    0.73548772707710
H           1.22371960931821   -1.45196152976513    1.31361076227178
H           2.58988942880927   -2.19302390264433    1.30814030021842
O           0.13793333250377    1.27538652712489   -2.24239099693325
H          -0.73522193012784    1.95241113002275   -1.29694383118236
H           0.93434396351600    1.14634680770015   -1.67725564828596
O           0.85156184343055   -2.82895841032000   -1.49195812283150
H           1.25836493486014   -2.50725770131957   -0.66530618196622
H           1.50152319759473   -2.69764007985919   -2.18437815854377
O           1.89100840377868    0.85510399997799   -0.27658911071727
H           1.35802989039374    1.15712043574225    0.47871137435632
H           2.11720563790004   -0.06367300090663   -0.06938611045863
O          -1.12659177679695   -0.96880074056865   -1.72478316779693
H          -0.52098714892159   -1.73419181093560   -1.68513103419393
H          -1.40805445817561   -0.80397879703226   -0.81165076225481
H          -0.31838221680056    0.39316127255691   -2.24230782726085
N          -1.35223591738988    2.24742166296017   -0.41526971474916
H          -2.00915150459750    2.99606631314065   -0.60142319782486
H          -0.70907288325051    2.44688180495696    0.37001936342744
H          -1.80615095294473    1.36310567521954   -0.08072131576902
