    26
        -50.46220852  Gyration_radius:  2.42275383266 Dipole_moment: 2.969
 S           1.13213428259912    0.33180877633467   -0.42794500170746
O          -0.05826533833706    1.16387286087435   -0.65688441195607
O           1.28344109514992    0.05084055328755    0.99298438022280
O           1.06373462370890   -0.89014099990362   -1.21789387709505
O           2.36262933341571    1.12636340787188   -0.91903547732955
H           2.42550000135673    1.87249137228020   -0.25530730754426
O          -1.07871420597780    0.79146309083377    1.92157855978339
H          -1.24171649062718    1.48404103888371    1.27396658388577
H          -0.17235361673463    0.47711518279996    1.71237424167472
O           0.01182023629168   -2.51946486615374    0.58479286137329
H           0.49360768533980   -2.32720023906072    1.39315023894710
H           0.47781000610653   -2.00145203529782   -0.10414087362509
O          -0.83493545231074   -1.86955887612267   -2.74534597994817
H           0.00598657572963   -1.53187115192149   -2.36461366967723
H          -0.93850634623357   -2.76186337214276   -2.40502258238118
O          -2.30113245071017   -1.24631470437127    0.77474511062521
H          -2.00301861726247   -0.51837923607073    1.37753180947735
H          -1.53484229194823   -1.87230996780524    0.74080711599533
O          -2.09682779501835   -0.09208146231373   -1.40444891217694
H          -1.72815840555092   -0.79285420650155   -2.04636557195729
H          -2.29889306284409   -0.62103706552258   -0.45948246768102
H          -1.28416136594987    0.50642502019262   -1.17027591837270
N           2.16306584969345    2.74694948445224    1.11145169473401
H           2.90429183048889    3.20173958651557    1.62816889206756
H           1.87185917723823    1.91258624296011    1.61264187617019
H           1.37564475239216    3.37883155589372    1.05256867650282
