    26
        -50.46220857  Gyration_radius:  2.42271972536 Dipole_moment: 2.971
 S           0.60455045233702    0.62182426078443    0.90709992613729
O           1.55657047639075    0.42338481064887   -0.17700083826113
O          -0.68305082744174    1.08898545639909    0.37288875985086
O           0.42336829166372   -0.58818178931407    1.69770031948515
O           1.14315037040654    1.71379639551411    1.85796149225654
H           1.36973363967075    2.46174913901427    1.23312444428652
O          -1.69038839572163   -2.08711741561497    2.12549752866368
H          -1.37355227465273   -2.96535319006248    1.89947299644197
H          -0.88932371159094   -1.52222974748892    2.19825063167268
O          -0.03587069376196    0.50546084438524   -2.28578707639720
H          -0.68335438816505    1.11228248279254   -1.91412058635751
H           0.66134116643939    0.44825077254691   -1.59676195247280
O          -1.14210151583531   -1.81399271176667   -1.68855742124600
H          -0.38835900775178   -2.20520008773045   -1.17941173193051
H          -0.75545744896026   -1.01920105664592   -2.13694641999166
O           0.93510595239156   -2.40508590574633   -0.15877418182610
H           0.81697644725273   -1.79330986021375    0.59754822128567
H           1.71130960321520   -2.07117176745086   -0.61542277562468
O          -2.42574796046634   -0.69592426325799    0.10691494267018
H          -2.30081514115131   -1.28209037379299    0.93131805193476
H          -1.78935730878410    0.10801840195851    0.25425503808870
H          -1.95354679134154   -1.23960003877301   -0.72763284159140
N           1.67768998326116    3.25876737298114   -0.17086926057613
H           1.91366270443611    2.38726684471816   -0.63660757191980
H           2.44264982750767    3.91124605161217   -0.28209696897550
H           0.85481653067753    3.64742536451781   -0.61204269561586
