    26
        -50.45439742  Gyration_radius:  2.51513650404 Dipole_moment: 3.291
 S           0.32655291464512   -1.02142829723948    1.22387020177712
O           0.41277716263343    0.45817601715957    1.01950754373262
O          -0.25614079524754   -1.63504618458087    0.04712633388263
O           1.62607935616999   -1.55682541876355    1.56152610103129
O          -0.61496169741605   -1.22098017401192    2.42596809777082
H          -1.46661881441611   -0.73007918463910    2.15324793908370
O           1.04996804948354    1.64023959816695   -2.38943345347572
H           1.12063880119452    2.55086127214934   -2.68123027433603
H           0.15564843803753    1.55848612212168   -1.94139592115009
O           3.40471856519428   -1.21111373400022   -0.25946179598558
H           2.71632016849300   -1.49933881444372    0.40305972875712
H           4.25055604730589   -1.31701060785397    0.18160666403740
O          -1.10014677493747    1.44349075404937   -0.94628204220113
H          -1.67433650197373    0.69587266840054   -1.19348218544282
H          -0.61622298481196    1.13038393045160   -0.15332969800534
O          -2.43033834199518   -0.92742102050757   -1.15748651241494
H          -1.61092036170458   -1.27028308164799   -0.71282930750822
H          -2.55328076523178   -1.47638848798792   -1.93301478447780
O           2.39268798972983    1.10562168483298   -0.30189334693984
H           1.94022931454307    1.31015466030574   -1.20943443601498
H           1.56737744500652    0.87083158132559    0.34544531472511
H           2.89579576482647    0.20782958104849   -0.38202423892551
N          -2.69018402153704    0.08373574857640    1.58986093450457
H          -3.51955722283995    0.06060780324452    2.16835641924691
H          -2.91856520135002   -0.29833819454335    0.67646158610842
H          -2.40807654381426    1.04796178838504    1.46526113223298
