    26
        -50.45439742  Gyration_radius:  2.51513715357 Dipole_moment: 3.291
 S           0.62495992244816    0.61274452450500    1.37175643918902
O           1.28230588459753   -0.57881036138576    0.87288092415247
O          -0.45330239959141    1.01964013813062    0.41770647837553
O           0.08176329230590    0.44965164542217    2.70133142358670
O           1.62699900912449    1.78189057555072    1.38996416134771
H           1.88205785450813    1.90019131857032    0.40933906649404
O           2.22008465482528   -0.95394226363744   -1.50594184190399
H           1.91594250648010   -0.85206689035772   -0.56581406513264
H           2.55862002113506   -1.84768506345787   -1.57332978569118
O          -0.29833065607532   -0.04622757214544   -2.02442318451416
H           0.58179044323276   -0.46445245363969   -2.03911484820716
H          -0.32456274831358    0.44209142614879   -1.17480748416065
O          -2.21847961110154   -1.65988542801322   -1.35099254465879
H          -1.44275045739349   -1.12456137350238   -1.69581886337957
H          -2.91991984317821   -1.56102061026134   -1.99719428758117
O          -1.72283283632807   -1.37007008035528    2.87772970010814
H          -0.92799802741750   -0.76671203367677    2.88790536247665
H          -2.20449840447799   -1.17933142296517    3.68569657239081
O          -2.53060917195305   -0.26869662020656    0.74988910077574
H          -1.67353673845836    0.36885771048489    0.63052878766724
H          -2.47235478273360   -0.90970217099805   -0.05998919587950
H          -2.31320445930446   -0.80265084114825    1.60616441545314
N           2.15045552105370    1.96141396506353   -1.14019068742325
H           2.43429215531588    1.03281803709416   -1.43949621659379
H           2.85926667855921    2.62496407176719   -1.42363230621449
H           1.28384219273511    2.19155175301763   -1.61014713067826
