    26
        -50.46385740  Gyration_radius:  2.41000476934 Dipole_moment: 6.531
 S           0.07725170380048    1.11723804739170    1.17607294205476
O           1.03635911599784    0.14318803460415    0.64248091748357
O          -1.05169814316439    1.24762572520698    0.10798615006128
O          -0.48131142665123    0.69422813580136    2.43159942192772
O           0.67285876511146    2.46057271517359    1.18664143322021
H           0.69120419884883    2.75788225759959   -0.15967799312786
O           0.91705899106593   -2.55124795613598    0.65888208485551
H           0.19543259211074   -2.69599717616015    1.28338953485298
H           1.13146285474265   -1.60705130867000    0.75966170006489
O          -0.20679376505425   -1.96618869031641   -1.71484175958025
H           0.26773696279071   -2.35414271713394   -0.94561886546436
H           0.32291784922189   -1.21249513242923   -1.99892526080076
O           1.56144390886324    0.41157498719366   -1.82882858285826
H           2.47820384530038    0.16020209259170   -1.95651545121809
H           1.36724684409577    0.24527070509167   -0.85638096389288
O          -1.27919426666483   -1.79663610880414    2.27025860254145
H          -0.92980110312377   -0.88222269061502    2.40325794569088
H          -1.86057960820530   -1.96637428110469    3.01318650371468
O          -2.13246430775061   -0.99229300919092   -0.18391307413395
H          -1.53055483192978   -1.41550334966905   -0.84901697010783
H          -1.94892746639021   -1.43882938640004    0.66546046713221
H          -1.55175278187518    0.34230600909613   -0.00285468541870
N           0.59894199650086    2.84115204598888   -1.29082089019382
H           1.00750973282625    3.69326918427017   -1.66083385371708
H          -0.40203635493705    2.79105673912444   -1.47171315611563
H           1.04948468453739    1.97341514737903   -1.67893619694609
