    26
        -50.46318595  Gyration_radius:  2.50873355769 Dipole_moment: 7.451
 S          -0.23162509924083    1.64369449751606   -1.26329405479835
O           0.31852738353799    2.37330010094433   -0.13187007417951
O           0.81904240049799    0.83327073328214   -1.90041929598354
O          -1.40722543294923    0.87525537489059   -0.96514984639343
O          -0.64044541486335    2.73123719886466   -2.33510287229080
H           0.13272785390805    3.28483615316878   -2.36337585061592
O          -0.95370093321189   -0.07995764158764    3.16273760328695
H          -0.20453622770663    0.38864746504573    2.75343915862844
H          -0.58660386597681   -0.77433728110040    3.71195052930002
O          -0.71011067167340   -1.29861115002209   -2.57542862552719
H          -1.56079509639043   -0.92700865053957   -2.32039919315330
H          -0.09559602513266   -0.54693922997751   -2.50885192875843
O           1.20218904962842    1.08999512258319    1.90505473414094
H           0.79744373737271    1.60848421891823    1.15122910143228
H           1.68270950608666    1.73565260269875    2.42639891289165
O          -0.11717268719298   -2.51212742061502   -0.26199726776371
H          -0.33944941310447   -2.32127300247765   -1.20169042776413
H           0.97642947116594   -1.58470323536985   -0.06533522311443
O          -2.01142235933407   -1.08493055429357    0.83268852108438
H          -0.87958625843924   -2.11213355065079    0.23975288537491
H          -1.80562580967471   -0.71724682936902    1.71032432070813
H          -1.95725563054204   -0.33642522285433    0.21515278971451
N           1.74070170637740   -0.77278102037051   -0.04122068570602
H           1.67903812903861   -0.23122878325960    0.83489064449767
H           1.47843525737827   -0.11995700571738   -0.83033131159813
H           2.67390643023802   -1.14471286973953   -0.17915258342519
