    26
        -50.45793247  Gyration_radius:  2.46020333361 Dipole_moment: 5.059
 S           1.00044484648006   -0.12676096240903    0.12250469290083
O           1.93336826118053   -0.72251212148330   -0.79822163764458
O           0.02121074540768    0.73005204656257   -0.58810317142527
O           0.32142921898152   -1.06153254634378    0.99728123764634
O           1.76463025436232    0.85670911176729    1.07953618019326
H           2.31912041362862    1.40429120467096    0.44773231598824
O          -0.51437689812330    0.48234874303454    2.89870742489004
H           0.25480131306543    1.04381645002507    3.02933970484641
H          -0.18894235473684   -0.26339826473769    2.33611194403787
O           0.32924057473703   -2.91452204707922   -1.06279134004188
H           0.14590159723705   -2.87613853719829   -0.11745726713432
H           1.07012292036496   -2.29881831395192   -1.18162880781658
O          -1.56183529206439   -1.14133242399027   -1.77259501731658
H          -1.00600937164813   -1.94184726718233   -1.65635696012428
H          -0.96657083431683   -0.40044999514841   -1.57047530000096
O          -3.27782457118350   -0.69327028225763    0.10969539220284
H          -2.64978346215157   -0.99035885175977   -0.61942691454151
H          -4.10285622518880   -0.46817418765910   -0.32466395757781
O          -1.88776530963032    1.24610206613516    0.90813399095845
H          -1.08411466857518    1.11618931582919    0.23143014037417
H          -2.53713527424998    0.46058733274786    0.65409726391367
H          -1.46281563719347    1.00667531568227    1.81616467315255
N           2.96185189747085    1.89721328896542   -0.97554097975861
H           3.91763284069929    2.19523452466620   -1.12281851311880
H           2.34947907662392    2.50685354218776   -1.50184185064158
H           2.85079592900432    0.95304285880265   -1.33881324408094
