    26
        -50.45365001  Gyration_radius:  2.43647355216 Dipole_moment: 4.226
 S          -0.75823137226562   -0.70027266326338   -0.49472156527859
O          -1.03211646896145    0.71004850349867   -0.13876519244856
O           0.69020005159722   -0.93343172166822   -0.44385493291390
O          -1.48235272744724   -1.59058646838411    0.38583957573118
O          -1.23897370682050   -0.93385423947544   -1.93336737728356
H          -0.49583840875997   -0.54143879298140   -2.53457951721823
O           1.18554678286000   -2.20428721911012    1.75851784817958
H           0.93551004160471   -1.83852117030807    0.86843178859676
H           2.08446295612825   -2.52933881420130    1.68523792560198
O          -1.95049751260644   -0.09454373815522    2.40328787143221
H          -2.05768964835330    0.71844905258399    1.89603614649778
H          -1.90256701575171   -0.80000527157846    1.69633737532788
O          -0.39047196354558    2.48022098487414   -2.04095807237806
H          -1.18937514470796    2.93925268969694   -2.30392399390073
H          -0.65751430950664    1.86776852037323   -1.32464858791614
O           1.14629930010304    1.27178650658467    1.12525819752329
H           0.27742778745342    1.23204653278742    0.64387924652163
H           1.70712828506158    0.70323210024329    0.58453070407587
O           0.45487496377654   -0.16271510961597    3.07295160611703
H           0.75880965044319   -1.06647227829748    2.69691362890175
H           0.81407675234331    0.52521431113221    2.37015391718692
H          -0.60049470763353   -0.14136920879714    2.92111658228263
N           0.71767557454936    0.13565602163769   -3.17730967087366
H           1.46812431302725   -0.17484795624601   -2.57425443625531
H           0.53692160941107    1.12293952237928   -2.99754329507251
H           0.97906492803687    0.00506989628159   -4.14456577243409
