    26
        -50.46489351  Gyration_radius:  2.55413458908 Dipole_moment: 4.637
 S          -0.46195848867945    0.65953031416757   -0.18134424257056
O          -0.30732069701088    1.94216151108697   -0.99892741200370
O          -1.79273328445852    0.63905357404846    0.39165955814368
O          -0.23136194455378   -0.49555101486986   -1.04926877151448
O           0.54424586793423    0.68345868825150    0.90482493957091
O          -3.44705146675691   -1.40028250809949    0.14834720815783
H          -2.91379254265355   -0.57591509254367    0.21891144901699
H          -3.98028531264718   -1.29906531568948   -0.64121634740746
O           2.70255818125803    2.25715056916502    0.81021246799818
H           1.96789112272016    1.62127083356262    0.92887756183128
H           2.40066554668066    3.08744460776346    1.18275351741227
O           2.13834502088922   -0.61421304342752   -2.19988872316663
H           1.27136239130094   -0.65596257879752   -1.73942691922496
H           1.98747764771069   -0.95670360150245   -3.08252507922282
O          -1.06915196481147   -2.60010577427006    0.28814736025756
H          -0.66736886165447   -1.95231499128701   -0.33613944471975
H          -0.84347907997170   -1.83254494150955    1.54607314493505
H          -2.03387632145373   -2.46147328879895    0.17789669856702
O           2.08220394525025    2.02484766472540   -1.79383521371312
H           0.65733462399221    2.00361925038165   -1.37400154256536
H           2.53336803233184    2.18157011231769   -0.93731208252945
H           2.27226208339499    1.08796325870079   -2.02346818328010
N          -0.72834643377187   -1.04527705604512    2.30717945588509
H          -1.63797590598172   -0.60465020969683    2.43648032644437
H          -0.09912040765756   -0.30721538652090    1.83350135553691
H          -0.34389175140180   -1.38679556110462    3.18248892816230
