    26
        -50.46564191  Gyration_radius:  2.4202891343 Dipole_moment: 2.440
 S           0.61972512558032    0.26746639204443    1.10697524676655
O           1.83824601230732    0.16613447837432    0.32197639527148
O          -0.33220135113579    1.18988425629080    0.46543666258646
O          -0.00412932997988   -1.03230193320543    1.32532639206984
O           0.95068489790949    0.85199269217427    2.49894231573017
H           1.40947624553319    1.70797114182007    2.25811038546480
O          -0.19021710543540   -2.72388531408672   -0.65822093165195
H          -0.08120081039470   -2.13944167683523    0.13242522384942
H          -0.07766497658446   -3.62172540071646   -0.34299436412874
O           1.25918465101883   -0.83776218774387   -2.02977211434574
H           0.89867111985514   -1.70318356153963   -1.77191395455819
H           1.65846832436860   -0.47280578730246   -1.20455654771985
O          -2.40313006856726   -1.27260573919592   -1.35832559002929
H          -1.75794075354969   -1.99155352993580   -1.22672932859498
H          -2.67445286422653   -0.99663343526203   -0.44578992995775
O          -2.58705010242944   -0.38504193720939    1.12421569473769
H          -1.70187648120777   -0.71704151189936    1.37165870398763
H          -2.47800277073132    0.56935261929340    1.07902995422800
O          -0.81662150399456    0.57457175766480   -1.91442135338151
H           0.05645122730870    0.03601622779593   -2.12795142616911
H          -1.57032615013012   -0.17200331166035   -1.78015302068531
H          -0.64380164291143    0.93603739236481   -0.95739331274507
N           2.07609539923939    2.83556104827733    1.26072723246766
H           2.83784128692084    3.47660080636328    1.44183961949024
H           1.32301215804659    3.34110426273554    0.81228956266247
H           2.39075947482860    2.11329228388163    0.61926846087283
