    26
        -50.45568723  Gyration_radius:  2.56733931252 Dipole_moment: 1.950
 S           0.65543747412169    0.59015111875411    0.49453705479602
O          -0.74109583550189    0.77183846143772    0.02370126825750
O           0.79323338702944   -0.69395116161586    1.15613737235098
O           1.58803128259139    0.75214203459989   -0.60531841628989
O           0.92845391575029    1.72319073282469    1.50384632050797
H           0.08555819011455    1.75573026495229    2.05581033931471
O           1.03388150379353    1.75124889741470   -2.92400235338986
H           1.06707527720601    2.70728683710881   -2.85711161747911
H           1.38846805427285    1.39884890542624   -2.06647119911421
O          -0.58276956799184   -1.90389182494696   -2.58260086429614
H          -1.22587337762270   -2.49645939987588   -2.18951144353080
H           0.25043990874729   -1.99411730382923   -2.03812964474245
O          -1.36790942019375    1.49919165434915    2.58526907861498
H          -1.66392549320484    1.25051243391445    1.69956941584568
H          -1.25991495070551    0.64715080233989    3.08275753567543
O           1.50752193265887   -1.99145839448097   -1.02366118332157
H           1.24151822855291   -1.65441040551851   -0.14152311889775
H           2.14143714630537   -1.33877422130976   -1.33651012447725
O          -1.14252765527602    0.55829715032494   -2.39416487537614
H          -1.02902143457191    0.67493797763071   -1.33194974988009
H          -0.33247155057424    1.06296431874404   -2.77021651403228
H          -0.96291804987358   -0.44755184335527   -2.55637152410525
N          -0.73817564952653   -0.92104191284297    3.54574876280302
H          -0.12353265946961   -1.01423627791451    2.73507709772449
H          -1.35336719917899   -1.72474833845453    3.56127670785132
H          -0.15755347744734   -0.96285052567043    4.37381167519295
