    26
        -50.46460229  Gyration_radius:  2.41057995522 Dipole_moment: 2.672
 S           1.26854218897138    0.41481878690465   -0.41667274010300
O           0.61343413297130    0.90924128728118   -1.63451177321196
O           0.51183097924024    0.85366569085354    0.76338174632594
O           1.42835637690198   -1.02550732196369   -0.43465322852614
O           2.67634997405117    1.04821624495687   -0.33792680500407
H           2.46555089709114    2.02508831248560   -0.33908523110059
O           0.77543274784112   -1.38116404230975    2.17740087753712
H           1.35675842729562   -1.74546038540124    1.49762521859353
H           0.68593902739691   -0.44737559000322    1.90250729388241
O          -0.68232524435040   -2.42799765544170   -1.17826658688841
H          -1.09192270936465   -2.55625114322426   -0.30178818253606
H           0.21365964455270   -2.06624236572780   -0.99165185094556
O          -1.60066368461953   -0.20750174614642   -1.88181745885170
H          -0.69085317289729    0.30260887739835   -1.92307110334828
H          -1.30463219885579   -1.20974903232404   -1.73094718933865
O          -1.58766589418520   -2.19519095581112    1.39503060413334
H          -0.69885331198037   -1.93992356378815    1.77229270863860
H          -1.99911280857265   -2.77704647951282    2.03499205361790
O          -2.06905415434438    0.34592772530585    0.51986653388419
H          -1.15531774994126    0.66740724820148    0.70133444639724
H          -1.96810475989961    0.07886644527652   -0.94034864473402
H          -2.11188783036027   -0.53631134295936    0.93532900814397
N           1.47368130142466    3.34352843092076   -0.38205527882176
H           0.95183640252561    3.03873773377231   -1.19641190835279
H           1.63675827308540    4.34061405247879   -0.44162917478727
H           0.90226315601821    3.14700075877991    0.43107664540086
