    26
        -50.46400453  Gyration_radius:  2.4362685022 Dipole_moment: 6.308
 S           1.50052605720413   -1.33692445934623    1.01800410727572
O           0.72569490667745   -2.16780271805177    0.12679140288619
O           2.76218060100184   -0.90747340998907    0.45954732156113
O           0.71690786364400   -0.22604177605497    1.56355490375582
O           1.84814880581938   -2.22536183105134    2.29168858888881
H           2.41822413876268   -2.88284968031368    1.90789274568631
O          -1.91493978578710   -0.25749498706078    1.38155321192224
H          -1.81383151529906    0.90109192390818    0.52741068744771
H          -0.96914443610344   -0.34202227051140    1.63794582427166
O          -0.84430579866828    0.18692332328384   -2.31846819356802
H           0.10037802424967    0.16291862678908   -2.00091452187778
H          -0.79852863733642    0.18439143677085   -3.27522639200239
O           1.60031680810561    0.46589221164956   -1.44896313779355
H           2.07511575838926   -0.16351944769767   -0.86640286458996
H           1.58268210381203    1.29033697263382   -0.94568731544991
O           0.95443371645797    2.18979081617786    0.68951680320689
H           1.39576950957782    2.72453495893756    1.35050632655545
H           0.94011242582017    1.26256350209152    1.05682587389710
O          -1.78933579411561   -1.89936169603398   -0.64948217538790
H          -2.04403051025745   -0.97813095931264    0.70641639647409
H          -1.62873539811491   -1.29642293244428   -1.38880232893073
H          -0.89118477907672   -2.18105701143523   -0.37691884537171
N          -1.56459667660453    1.71473653970856   -0.19873318929299
H          -2.28700905382128    2.42306061312976   -0.24892515949854
H          -1.41818502811932    1.24936443306554   -1.11602057311944
H          -0.65666331620489    2.10885779114130    0.11689054304427
