    26
        -50.45249134  Gyration_radius:  2.48731224813 Dipole_moment: 3.060
 S           0.36693769135686   -0.70104505956403   -0.84057830238847
O          -0.65373883516022    0.29556430496731   -1.14356270468796
O           1.33490615501165   -0.17422374838980    0.12624267693724
O          -0.23032531836679   -1.93730209679640   -0.34470008470148
O           1.11697879338288   -1.07217306982707   -2.13506781395333
H           1.63274213831209   -0.26821612802953   -2.43290155239198
O           2.54252452599940    1.00430573573961   -2.73351827821943
H           2.11689004390428    1.68436953446283   -2.14029681651739
H           3.39805745181103    0.81118062578459   -2.34402952280732
O           0.65594502847631   -1.52418109216346    2.18509119661479
H           0.49898509781784   -2.33603313912395    1.68751520058437
H           1.04581742903378   -0.92234372740045    1.48858388315888
O          -2.63248651360227   -1.93312768577089    0.52386182877620
H          -2.88739073825426   -2.85461445338415    0.59632812602269
H          -1.75753014528729   -1.92343505726449    0.03717938397954
O          -1.52534451332280    1.46370930158557    0.93472286682017
H          -1.14370948801646    1.03598071028157    0.10334561042587
H          -2.40454445786114    1.76023065513421    0.68844795005138
O          -1.64702073299657   -0.57019241572932    2.41172831865964
H          -2.15608444014287   -1.17015310132782    1.74570349929125
H          -0.65378681652961   -0.95637958403320    2.42144847498948
H          -1.58750643257397    0.34096550479627    1.90549427107763
N           1.31798744061788    2.46605565509165   -0.89721357204181
H           1.54388613866334    3.28312074445403   -0.34426952375775
H           1.34947996755213    1.64750059137940   -0.29032118816016
H           0.35833053015947    2.55043697513171   -1.20923391776614
