    26
        -50.45448224  Gyration_radius:  2.44765885552 Dipole_moment: 3.745
 S          -0.37763837394512    1.31105268505821   -0.48646615725779
O           0.58477329326939    1.70150839459221    0.52141232713194
O          -0.30967032847843   -0.13864235321744   -0.75113874162061
O          -1.75159512726813    1.66960304140665   -0.12868547130288
O          -0.04183112834835    2.03132093007661   -1.80760075211801
H           0.96928917150023    1.91999896941591   -1.86360023338732
O           1.22107174750947   -0.47222808847728    1.84768907277275
H           1.03438401558628    0.40969788525285    1.45534107237509
H           1.68981043795730   -0.94950718042349    1.14972070214773
O          -2.32731930069618   -1.75949692923729   -0.98743531242531
H          -1.99450934863377   -2.60034595729947   -0.66568721529471
H          -1.54120526318148   -1.16245961632061   -1.06992857843966
O           2.06637245044895   -1.23594244887535   -0.77822880312722
H           1.16878935003092   -0.82747234512903   -0.80448803844272
H           2.00379350374654   -2.05552738740517   -1.27092979910625
O          -1.18479110674563   -1.19806986803447    2.48400278817658
H          -0.24870781563235   -0.97386597851665    2.19749388925878
H          -1.24476317726582   -0.91616065524582    3.39861428231568
O          -2.93576750142423   -0.20330236932858    0.93487227846598
H          -2.47971151332361    0.67626309130709    0.50075851713589
H          -2.90542276874933   -0.87122412685916    0.16146928039256
H          -2.24949520357883   -0.57330473593089    1.61322110451952
N           2.48802668055772    1.60997935712456   -1.54378058447489
H           3.26407547675061    2.04206292980026   -2.02817898439194
H           2.65032030132138    0.60823773894954   -1.48701176079404
H           2.45172154856213    1.95782503732958   -0.59143489255234
