    26
        -50.45448227  Gyration_radius:  2.44765102141 Dipole_moment: 3.745
 S           1.26915292109690    0.56175024229711   -0.41513481472415
O           0.52949526952618   -0.22542774088140    0.58964297091839
O           0.59072147904440    0.54236103338076   -1.69337501728530
O           1.47793212440759    1.91785512858037    0.09627106126177
O           2.65701032783856   -0.09092111502858   -0.57293365947902
H           2.44543542565897   -0.91648666311434   -1.13094235553570
O          -1.90446628005932   -0.11997720320290   -1.21955440334074
H          -1.77175801253714   -1.03382879809428   -0.93329563047884
H          -1.01409656167250    0.17303358283609   -1.51609912046299
O           0.03676024214522    0.47838012494037    3.04216741188485
H          -0.80046106417533    0.05561733640449    3.24627132111332
H           0.33744893815694    0.09745681386462    2.17858333654421
O          -0.58073898633327   -2.45296408109010   -0.22030182490297
H          -0.72408790497405   -3.00444434698135    0.55021748712790
H          -0.13784064833294   -1.63331354190208    0.10401381393102
O          -2.40967411018813    1.70239739639892    0.55328610274388
H          -2.90289483238136    2.34777046500549    0.04357731134960
H          -2.22115826340157    0.94873723773625   -0.08323311526677
O          -0.29948481922772    2.58856938313921    1.65608755071937
H           0.50418346682224    2.38258756705134    0.96238206586553
H          -1.16733432293183    2.28693025922378    1.18261068496104
H          -0.15236670774604    1.88122238803243    2.37944230228323
N           1.73387560299071   -2.00130696375027   -2.03793372731854
H           1.02290003230742   -2.50405905289572   -1.51372865495343
H           2.23193509900367   -2.65542529902462   -2.62755350571713
H           1.24951159495773   -1.32651417291515   -2.62046761125755
