    26
        -50.46850029  Gyration_radius:  2.45647901411 Dipole_moment: 4.945
 S           0.93513494981882    1.51791413700088    0.95374834579529
O           0.47296462666171    1.79759820940791   -0.41362673204920
O           0.18085070070205    2.23549881864483    1.94824480576444
O           1.05508015624195    0.09483563676778    1.17990899017756
O           2.41814904037346    2.09602494259580    1.01964408686044
H           2.29646015682143    2.97592642900626    1.36191492069365
O           0.49185991002986   -1.54315818720146   -2.29387291147276
H           0.81094296109859   -1.96443558167618   -3.09246907011114
H           1.23750674253510   -0.97526358505729   -1.95533026890048
O           2.29025257093924    0.06731158284938   -1.26326190056528
H           2.46584405081603   -0.24769139168029   -0.36901490750402
H           1.72651384229230    0.84995760568378   -1.11328240225285
O          -2.45675641108688   -1.01590686235775    0.52847230330884
H          -1.93412653581786   -0.24028312031278   -0.62414482174478
H          -2.30342596502532   -0.47635248314496    1.33738469866816
O          -1.50993757204963    0.30336001988151    2.63974981793540
H          -0.87067582694271   -0.33412624585840    2.96748142190570
H          -0.98766730610422    1.10412782166893    2.43888781545440
O          -0.10780606057393   -2.24760748383319    0.41108520671056
H           0.36575946214744   -1.48237386937886    0.78253298427004
H          -1.74325488998005   -1.69506643332631    0.56180717820298
H           0.12701531832558   -2.26785278244295   -0.52579874294086
N          -1.39303425047154    0.25177700917120   -1.44350341232848
H          -0.71207216762179    0.93967422299600   -1.02132022120357
H          -2.02587335427716    0.72263257005231   -2.08025643509988
H          -0.82970414883891   -0.46652096945836   -1.93498076956872
