    26
        -50.46191098  Gyration_radius:  2.40346043129 Dipole_moment: 1.650
 S           0.77971119065474    1.02402828446981    0.57720042306953
O           1.34011654587846    0.66053447792070   -0.71819970928614
O          -0.69197096311337    0.88169100570845    0.53227519513815
O           1.33496436151418    0.24997518985810    1.66671135642912
O           1.07857696339467    2.51388583087523    0.85580365756785
H           0.76288947087959    2.96228110063913    0.01817534850562
O          -1.33642134469266   -2.26677198021924   -0.87823726973656
H          -1.43405144070878   -1.46381109798761   -1.45538553450043
H          -0.35234566753459   -2.37229772200560   -0.78196607103520
O           1.22470950157900   -1.98478168189572   -0.40478841607064
H           1.48814736296624   -2.17040980928163    0.50006144231708
H           1.39319345356695   -1.03128222695890   -0.55168621854460
O          -1.10155985801137    0.11766195525526   -1.97052666719164
H          -1.08098046995414    0.52059776936921   -1.07652579554369
H          -0.17358497038010    0.08173933252144   -2.22697864985330
O           0.39563547127983   -1.96153510721440    2.58413057407188
H           0.45120101954370   -1.97188354962916    3.54092194742856
H           0.82877517803037   -1.11582005362770    2.29033619654890
O          -1.74637023693551   -1.27283177584812    1.33288445169429
H          -1.00879930374337   -1.66251563559115    1.90335530950867
H          -1.41347478454457   -0.33501016540707    1.09755652496682
H          -1.66020390133634   -1.80985279534297    0.32179690302588
N           0.27779551233610    3.15877547839475   -1.53684972734804
H           0.77152977486400    2.31325211482239   -1.80699982255097
H           0.58415922950437    3.92364180134481   -2.12367481837802
H          -0.71164207475940    3.01073926978589   -1.68939063999833
