    26
        -50.45326341  Gyration_radius:  2.47994856681 Dipole_moment: 3.055
 S           1.07375704335771    1.16581218009712    0.85441097563291
O           1.63091866844609   -0.07813144183618    1.38937828975453
O           1.46817666616526    1.39009784986200   -0.51731993206171
O          -0.35110069352943    1.26444025310310    1.09111507544007
O           1.73100580160066    2.32799739027814    1.70475962229518
H           2.64285360697477    2.28890355622341    1.43545026858452
O           0.34858395324142   -0.97147964954088   -1.20202587189782
H           0.91371121635680   -0.20863108820413   -1.00384945916981
H          -0.56492212577969   -0.60864662419804   -1.23660964261129
O          -1.98084438435944   -0.69888749229276    1.78523354713663
H          -2.38428033652075   -0.83418294208561    0.91996744228503
H          -1.50463142748606    0.15506071498824    1.70767161825844
O          -1.90595657120496    0.44750181642008   -0.98570401911306
H          -1.69297609151939    1.01132980433780   -1.75690160877987
H          -1.47747638811950    0.91178113896078   -0.24662846187142
O           0.56266163805359   -3.23476501554503    0.04576270277209
H           0.46791826872494   -2.42268960884423   -0.52737489455704
H           1.46611599498669   -3.53593891771016   -0.06673358348736
O           0.18941761994255   -1.94117487329696    2.17072371355893
H           0.31897869103060   -2.58775770227510    1.36395436487472
H           0.82540401614763   -1.14037055028681    1.93428436478788
H          -0.76255061506903   -1.54461470749336    2.08351413820852
N          -0.48629405051578    2.08039915050865   -2.65367065032440
H           0.27207614532898    1.96773247407127   -1.98246865938390
H          -0.64621850222354    3.07389257090028   -2.76598294457788
H          -0.15432816402479    1.72232171385324   -3.54095641575360
