    26
        -50.45343446  Gyration_radius:  2.49270086157 Dipole_moment: 2.399
 S           0.23263273892470    1.14385959401544    0.33827288087492
O           0.95184273110527   -0.13447700679501    0.27558584066568
O          -0.00670612064805    1.67829621012792   -0.98407524335836
O          -0.98899652271128    1.01530584506247    1.12706173881876
O           1.14726646106934    2.12355544399131    1.13269284071215
H           1.92362137452220    2.24433554962372    0.52363174430716
O           0.60805444745675   -2.08206540981728    1.94787036713787
H           0.81800221676326   -1.40937457890337    1.24813240704966
H           1.24988344015260   -1.95256475067393    2.64840732772274
O           0.83647988481951   -0.76886200152472   -2.33682652528866
H           0.99155739109282   -0.65186472285487   -1.38091521546230
H           0.76917235789367    0.12213952079685   -2.69041906294247
O          -1.74652328383505   -0.35498080437362   -1.55407080368475
H          -1.00086835101456   -0.81547406736491   -1.98198847899593
H          -1.37263612383470    0.49713154198978   -1.27917176985308
O          -3.02863151204295   -1.79054753850369    0.20679592112502
H          -2.53166279184014   -1.28944517224096   -0.49910978516837
H          -3.92513589889919   -1.44984854588731    0.18826726757814
O          -1.70310744512216   -1.08050423811846    2.22362552688855
H          -0.82429088851592   -1.61215712550035    2.20484331235160
H          -1.41791085187036   -0.13727886658820    1.84296970214017
H          -2.29618219978832   -1.45797791986463    1.45156767632867
N           2.79099791926123    2.09921638966641   -0.90778099863187
H           3.41653036382588    2.77617190226602   -1.32517851938094
H           1.90785754777034    2.10879085705857   -1.41088262351569
H           3.19875311546469    1.17861987441513   -1.00930551742110
