    26
        -50.46516740  Gyration_radius:  2.5392024032 Dipole_moment: 5.797
 S          -0.23988699348252    0.57065237195387    0.02241806004788
O           0.77875687356885    0.06446183523765   -0.89307816137948
O          -1.28835141502439    1.29701616420506   -0.64622108108721
O          -0.84737234983570   -0.66831041376880    0.75460583954041
O           0.38936575923819    1.32626271955780    1.11779699266932
O          -3.82004079766616    0.49341294234013   -0.76192765647082
H          -2.92879488521971    0.90123527097734   -0.75599234112206
H          -4.29167899794157    0.87203285048912   -0.01908395967980
O          -0.94573376903456   -0.56012829493908   -2.82182614521523
H          -1.43092505918570    0.26663435286946   -2.89315751525218
H          -0.19252328737663   -0.36128970001145   -2.23328353189269
O           2.97998349813974    1.90046975575842    0.61292138678200
H           2.02392195517793    1.82700569895978    0.80481680882982
H           3.05040289700342    2.45639083749599   -0.16457548782210
O          -2.36434520605831   -1.76735087263847   -0.92338820738947
H          -3.11728767908691   -1.14377181019345   -0.89480166239849
H          -1.88369264538927   -1.53680584855370   -1.75290701949415
H          -1.46863318311979   -1.16824050373018    0.09495172479196
O           2.99281494761791   -0.76182777644978    0.24975801716966
H           2.18036409059779   -0.88569344693339    1.49620725894464
H           2.23528633804699   -0.61575049411999   -0.36358583529992
H           3.35349671705175    0.14173338112139    0.36037396937979
N           1.40852090942933   -0.72964147155846    2.26609820953218
H           0.95374625770377    0.19490039847446    1.94864787352510
H           1.79024181282304   -0.67318371502291    3.20486557532063
H           0.68236419202036   -1.44021424152666    2.19036687797834
