    26
        -50.45986816  Gyration_radius:  2.50792510019 Dipole_moment: 4.014
 S           0.29920987200299    1.62093366877084    0.07357461560355
O          -1.11801243865406    1.36934937762170   -0.01043929952967
O           0.77045934779214    1.70865909799206    1.45416506379555
O           1.11662996556298    0.69862816938717   -0.69791850921180
O           0.54190455451235    3.04269999958795   -0.58773739828618
H          -0.25018794179485    3.53854039296979   -0.40124330194556
O          -1.28689197020391    0.48919795211625    2.71270405620684
H          -0.55006133501628    1.04471237099527    2.40234571029932
H          -1.96435812100199    0.59343302895934    2.03752073922763
O           0.22088277141180    0.67450545289010   -3.19020168534914
H           0.99939168249756    0.81125506218703   -3.73309298205745
H           0.52369243263022    0.74538435161663   -2.26162623874874
O          -0.70443717003932   -1.84505916122598   -2.81028349974128
H          -0.36885804079246   -0.94843323875238   -3.01881091905990
H          -1.53229983498800   -1.93666058396735   -3.28500926617884
O          -0.29721768084723   -1.91179537930521    2.07940126587859
H          -0.73393383930727   -1.16923773987418    2.55561548084910
H           0.96936142924030   -1.32320729069092    1.74078279120170
O          -1.38947575177409   -1.33365176882056   -0.21918281722442
H          -1.36925807093184   -0.36182107169604   -0.22651142637776
H          -1.09748325342829   -1.61853383769638   -1.10722733724311
H          -0.75525104355812   -1.90917916521974    1.19884775431953
N           1.83289732035250   -0.68291196510233    1.41823611326216
H           2.73580231972791   -1.03442224764041    1.71738642020510
H           1.63193453815149    0.28086177538388    1.76480477772546
H           1.77556026846242   -0.54324726049201    0.39389992239791
