    26
        -50.45986810  Gyration_radius:  2.50822959296 Dipole_moment: 4.020
 S           0.99221728143851    1.02985300501527    0.82459255594396
O           0.49735224508487    0.79406847364183    2.17951253425374
O           1.73971684031167   -0.08980431389461    0.30827853078218
O          -0.07649754208289    1.48845534456020   -0.04782039268447
O           2.00754110895353    2.24610454616830    0.91016287671545
H           2.85047101216712    1.84895881679462    1.10964155689360
O           0.69978177464591   -1.89928193666642    2.27203509246582
H           0.68875588762835   -0.93596967333140    2.41244404969753
H           1.33985727784995   -2.02933963098673    1.56552476090879
O           0.93716133333904    1.95322280980594   -2.45027659896135
H           0.63511694860513    2.83422500668503   -2.67872409965158
H           0.62618374727514    1.79013448048663   -1.53614537599833
O          -1.59938696911448   -2.15421109300592    0.93255504626289
H          -0.85481932869818   -2.29628528302386    1.56052772765922
H          -1.92338265657029   -0.77744300289573    1.18677325350253
O          -0.39887479769238   -0.20373539187522   -3.40451314583183
H           0.08521624975592    0.60183220589458   -3.12764593989420
H           0.15474334075003   -0.63602291262586   -4.05697509310080
O          -0.04427823132089   -1.60286825442133   -1.08926944991565
H           0.66251872818632   -1.07742499076285   -0.67795398774250
H          -1.13917766114765   -2.08680816180960    0.05568599889212
H          -0.28306396701834   -1.13865474432951   -1.91548210548421
N          -1.95095730153488    0.32761059599258    1.38138424035163
H          -2.85040276526632    0.66198647119444    1.70926699583765
H          -1.62494472071612    0.82089829476116    0.53166023163590
H          -1.17084786482888    0.53049933862511    2.04476074746034
