    26
        -50.45986803  Gyration_radius:  2.50815709071 Dipole_moment: 4.025
 S          -0.58427101055065   -1.52822938962677   -0.21704888552522
O          -1.74570935208250   -1.46058091494174    0.66777465585063
O          -0.75783786277378   -0.74403332554551   -1.41451173754717
O           0.64215511366009   -1.24513390550606    0.51038608266501
O          -0.44895422318003   -3.03802419165549   -0.68522758961172
H          -0.99814606298699   -3.10521011336015   -1.46106521108266
O           3.03198135023879    1.22179616161218   -1.04855653491994
H           2.97655908433261    0.24545760674217   -1.10889626955390
H           3.29781141944657    1.52754841194203   -1.91736829646165
O          -2.92950970928060    0.76345633554438   -0.30921138081189
H          -2.52099074530153    0.78441021118178   -1.18003628382887
H          -2.67558111939967   -0.10291113980921    0.05512930539863
O           2.68520826945365   -1.46455837030212   -1.16102537961284
H           3.30857197104322   -2.03969143019683   -0.71363391098779
H           1.89388266769903   -1.42509930982084   -0.58554815286082
O          -1.24961203859990    2.31033974965535    1.07986429111872
H          -2.05274567242172    1.95402343807138    0.63603223604968
H          -0.85393248769305    1.19041945773770    1.88809159169105
O           0.34885742299623    1.68908637805853   -0.88698428628884
H           0.00704013248762    0.82572731736976   -1.17456904156729
H          -0.56770822946361    2.28084874082567    0.35913178146162
H           1.32171810841180    1.60077180234386   -0.85838937787262
N          -0.58795844734116    0.19427848064367    2.33213666565511
H           0.27097608295989   -0.15400086186993    1.87124028809285
H          -1.29705411744916   -0.48548917429931    1.97882647293551
H          -0.51475053420756    0.20479803519422    3.34345896762634
