    26
        -50.46258609  Gyration_radius:  2.4094253196 Dipole_moment: 2.833
 S           0.77800103109064    1.42400578095336    0.70991659315838
O          -0.22700136007896    1.00264883991758    1.66636130647016
O           1.75170011674070    0.38855329807195    0.42247338007346
O           0.18791998604140    1.98718304474482   -0.49694999368616
O           1.58112986818678    2.59809762370192    1.40239547976088
H           0.86441484859480    3.17326430517181    1.64485557151069
O           0.26576181574762    0.76942955652692   -2.85589004244718
H           0.30958552540754    1.27836931039447   -2.01593058081165
H           0.91769026367498    1.15748213000274   -3.44084115664939
O          -0.58321197222671   -2.40148130278572    0.24607326058909
H           0.04327848633496   -2.19010452570028    1.11489336584895
H           0.00808508588642   -2.09357770909726   -0.53515949387182
O           1.02438502526543   -1.38788044452034   -1.43122791379593
H           1.45927932430340   -0.78601255389271   -0.79337804902441
H           0.66598244626651   -0.79265591926031   -2.11790006872658
O          -2.24942419865651    1.19499090948114   -1.41508656778285
H          -1.93213294919287    0.87666459747790   -2.26583141388780
H          -1.49078611953207    1.66460374469378   -1.02485102194969
O          -2.15478836068448   -0.49474079543216    0.64044576046777
H          -2.39739006994438    0.03074016849548   -0.15394175477941
H          -1.33734498186633   -1.68094055708661    0.34842621488169
H          -1.53379461758032    0.08496618639917    1.13339248197013
N           0.86831464347739   -1.60703429572663    2.14346077915527
H           1.53565981449393   -2.18890734028143    2.63256369960600
H           0.27826731691187   -1.13192891461144    2.81609569849706
H           1.36641905133102   -0.87573513763792    1.62563449542977
