    26
        -50.45198913  Gyration_radius:  2.60468454547 Dipole_moment: 2.747
 S          -0.52883534058740    0.33760748185678    0.33851451600819
O          -1.28972294222906    1.03181833638067   -0.79713791895022
O           0.11902825182910   -0.85220976396803   -0.17377027408293
O           0.39901684603998    1.27545086055525    0.92929008714128
O          -1.61522416456375   -0.04049524590086    1.30783107609210
O           0.67411605845218   -2.75333853666340    1.60480026597615
H           0.30653875672347   -3.57336275674440    1.27037071771326
H           0.58755686617000   -2.09673974762117    0.88333440938935
O           1.43431794920657    0.09276838629206   -2.38270722779414
H           0.71632395994102   -0.07362801659546   -3.03034615688200
H           1.15650612793066   -0.38832680651615   -1.58675621284161
O           1.05984522690598    0.82394502254917    3.46544898916941
H           0.94609954821723    1.04134874622562    2.51674707534843
H           0.83654537561640    1.61839292320747    3.95390675064166
O           0.64267932269599    2.42063165044159   -1.54433753387528
H           1.00967482470012    2.47776255896193   -0.65308793710233
H           1.10752714811624    1.64823104263340   -1.98108945220614
H          -0.59175352857596    1.70519267351568   -1.18224224538932
O          -0.63071066484911   -1.17186550237679    3.24748859349310
H           0.03890900671064   -0.49349140389939    3.52370131016960
H          -1.22790532845705   -0.56891272404867    2.22607054639057
H          -0.11470731564487   -1.88855076887056    2.79604100606182
N          -0.98965348285591   -0.15882936478378   -3.64750427580583
H          -1.36314933291364   -1.04788365853518   -3.95462556512458
H          -1.22413902639445    0.53638241225188   -4.34483976629887
H          -1.45888414218834    0.09810221165241   -2.78510079723930
