    26
        -50.46342158  Gyration_radius:  2.49355535819 Dipole_moment: 5.602
 S           0.29828077268031    1.45221676038935   -1.43338723700146
O           1.61942169172991    1.27551439791706   -0.87466139849126
O          -0.19774552601006    0.26566133501209   -2.12832481053113
O          -0.67001587790770    1.93601218899757   -0.46582284445585
O           0.43969177731071    2.56535740003190   -2.55024252977397
H           1.06499033924923    3.15727045864539   -2.14590009824516
O          -0.39885848223719    0.74678585104210    3.18637672010532
H          -1.10873183380076    0.73937230986897    2.52093818359667
H          -0.55098922449689    0.00073176190135    3.76880264243611
O           0.81644572801472   -2.33755010710690    0.38023521222022
H           1.33242569568820   -2.23305155273717   -0.45158775729123
H          -0.50028708743910   -1.88361654430286   -0.05258833967001
O           1.94934508793178   -1.34544578998662   -1.82985612168998
H           1.18720773252159   -0.82265285504818   -2.13483174653704
H           2.53602819135103   -0.68918038828614   -1.43930322911294
O          -2.23003906182090    0.65599586344081    1.11516637423293
H          -3.02310764356184    1.18871577669892    1.19481100559016
H          -1.61410025408306    1.18522917541832    0.53237052860284
O           1.58389249258151   -0.08588414564035    1.46643534861914
H           1.65114166162378    0.49656530381808    0.68883007116102
H           0.99479048850678    0.35625783509742    2.10271837789891
H           1.14648018705496   -1.58588787994657    0.94010713749860
N          -1.39959726237956   -1.39850849657358   -0.48763053804922
H          -1.02075603621184   -0.74835395385349   -1.22786361541764
H          -1.87422620773140   -0.81209096675857    0.21836191717904
H          -2.03168734854854   -2.07946375803136   -0.89315323288013
