    26
        -50.46583673  Gyration_radius:  2.4871258742 Dipole_moment: 6.441
 S           0.77808105944973    1.40824067529823    1.18432457752763
O           1.63432307743434    0.90999986691535    0.09832614181386
O           0.19671492235543    2.69142870996495    0.85807337413479
O          -0.16365099354989    0.40834186941101    1.61974874279746
O           1.75644407981194    1.67168959599293    2.40942917685973
H           2.04745873860288    2.56554486481512    2.26234603795809
O           1.97365260989951   -1.29263385476555    1.63482349285235
H           2.13309779897397   -0.52160043966055    1.06817812849248
H           1.25101773492895   -1.00389805720877    2.20416998563371
O          -1.89010441668160    2.33841417709945   -0.67598422247875
H          -1.15456887329466    2.44062873201750   -0.02704849654492
H          -1.91608938740109    3.16403678746039   -1.16330337055551
O           0.59922686074946   -2.82078880301516   -0.09349712857270
H           0.68966730704623   -1.72677323852450   -1.09467534261329
H           1.20313902696811   -2.47908799797787    0.60380944264992
O          -1.95927009292681   -0.03715162110043   -1.81067302124091
H          -1.95077584909174    0.84589666622135   -1.36508289796544
H          -2.78383155227024   -0.08855057708680   -2.29588040672375
O          -1.65781808013043   -1.59100398992643    0.56897353087201
H          -1.95716123174947   -1.14795167423314   -0.23653918994093
H          -0.30737532190028   -2.61041645134360    0.23536410375419
H          -1.23176626772787   -0.89023037314441    1.09294443775514
N           0.68363009109649   -0.78740261249962   -1.66738200031138
H           1.07308896789462   -0.05124508959612   -1.01416167775562
H          -0.29431734585482   -0.54346896525414   -1.88894874700097
H           1.24718713735405   -0.85201818989081   -2.50733467139777
