    26
        -50.46850062  Gyration_radius:  2.45640013723 Dipole_moment: 4.959
 S           1.67745727271397   -0.20761857269620   -1.10911049449183
O           1.60274737924249    0.99732853221839   -0.27005139085140
O           2.66200230979100   -1.14690345069898   -0.63856495894021
O           0.36181440099083   -0.76043410705955   -1.34196069999882
O           2.19272046147671    0.30235690183503   -2.52758299752335
H           3.13654949055823    0.19180634016029   -2.47189728157719
O          -2.11625544439776    1.84211275756409    0.12483522282055
H          -2.74721755137387    2.55648521065359    0.03194845078843
H          -1.51117804317029    1.89338402285102   -0.66524155515340
O          -0.36739470840294    1.83086040271686   -1.83289494110201
H          -0.43978339333476    0.97052602187596   -2.26232185843848
H           0.45045320816034    1.74501614033451   -1.30709448130269
O          -0.73495214010858   -1.45520199703289    2.16445192685371
H          -0.00808283450291   -2.01432275459899    1.80636945204286
H          -0.31498426240149   -0.03862536527713    2.01979436253246
O           1.05225124819879   -2.78278864210876    0.70339312934020
H           0.49849394837272   -3.06857847556524   -0.02745141199941
H           1.74938248817339   -2.23523040265960    0.29285439272754
O          -2.05159967842678   -1.00737163304211   -0.09746986911363
H          -1.41104903630960   -1.46390727129958    1.44751223609758
H          -2.32991861288783   -0.08312853207091   -0.05634499307413
H          -1.23535190006009   -1.01115515189057   -0.62794537451479
N          -0.08171479033078    1.00087470169174    1.75318563872290
H           0.66449416516018    0.98964054490470    1.00583840935713
H           0.22911421512112    1.53278724821862    2.55822785110972
H          -0.92799820225292    1.42208754097164    1.32752123568969
