    26
        -50.45468008  Gyration_radius:  2.51501886295 Dipole_moment: 2.464
 S           0.43561754489332    0.70850835412015    0.77122495038196
O           1.15009758160931   -0.22156356398966   -0.07906599564985
O           0.53734930107197    2.07652322995238    0.29552401152535
O          -0.97344249029480    0.30680145144625    0.93768703180928
O           1.03533837985538    0.61902428933942    2.20868373793530
H           1.97767442664328    0.89377854462176    2.04876544272363
O           0.00997602420933   -2.56719191152766   -0.55063369270993
H           0.55382520651841   -1.75465276668842   -0.48787169512164
H          -0.34718865059724   -2.67770603042553    0.35156111395008
O          -1.94131264709256   -1.84861282407544   -2.04266541870873
H          -1.12848411022111   -2.16844257326539   -1.51871277235562
H          -2.65562842190706   -2.44740931193993   -1.81479944090285
O          -0.70493126918561    2.19532730748345   -1.97677763450341
H          -1.03312173873725    3.09448373489971   -2.04875845436040
H          -0.14262025915774    2.17489666567371   -1.15567958555028
O          -0.84242959574156   -2.14333610607461    2.00065750988973
H          -0.17491884623410   -2.10081643289787    2.68750361293923
H          -0.98222163308598   -1.22041322967219    1.71371432405436
O          -2.34114957884347    0.44345802757686   -1.14275783784267
H          -2.19200990220032   -0.51618707043534   -1.58682883324201
H          -1.86964826407640    0.38218196853223   -0.21921039172683
H          -1.75814984287660    1.13139833398811   -1.63413614094671
N           3.24415127607448    1.34692867174091    1.05134918803390
H           3.01598246468297    0.64554816313872    0.35305988408037
H           4.25098813659757    1.42114862007652    1.13037846558361
H           2.87625688810456    2.22632445839443    0.70778862072488
