    26
        -50.45467994  Gyration_radius:  2.5154622262 Dipole_moment: 2.462
 S           0.65931370739438    0.70673264648985    0.59495237867936
O           0.15706170875711    0.89113384778377   -0.75117803570055
O          -0.08024743587585    1.48912518177677    1.56902081358865
O           0.68241569161918   -0.72028306663685    0.96621507565099
O           2.15854346441160    1.13746609606072    0.62235914010125
H           2.09477058531774    2.09614091903458    0.36546303692392
O           2.25456179029577   -1.86299683379532   -0.86994268457298
H           3.01533387662695   -1.28770787487121   -0.96625793889614
H           1.75722289548695   -1.51390927674597   -0.10541203983397
O           0.02586212210486   -1.24930105818917   -2.30899133845408
H           0.86145507364150   -1.64360341785697   -1.99264585724160
H          -0.00177179893808   -0.37571555865069   -1.86622990869833
O          -1.87686012104523   -2.53745829251153   -1.18200028039245
H          -1.17389577471749   -2.00780262353649   -1.69469695442540
H          -1.64174629346587   -3.46167087636156   -1.28818094058781
O          -2.49171570513142    0.54130347002328    1.65129952592014
H          -1.60721345183943    0.99331731895384    1.58691480914510
H          -2.80727637232730    0.70594066152515    2.54274197324245
O          -1.56809633736369   -1.77380805346873    1.17273983422169
H          -0.59043013601890   -1.42384668121577    1.14445392981620
H          -2.09803675166968   -0.91135058400398    1.34549991415494
H          -1.76506532474823   -2.10726028659330    0.17770147632978
N           1.23794826106774    3.45084330356354   -0.11843674327727
H           0.68135670812852    2.92620707283018   -0.78672094078633
H           1.45914735618948    4.35795888596423   -0.51048288308652
H           0.65736222211070    3.58054510043136    0.70181463816440
