    26
        -50.45593707  Gyration_radius:  2.49619701041 Dipole_moment: 3.352
 S           0.49779279311764    1.20462098830177    0.51350507043377
O           0.93129551042237   -0.14441425218554    0.90480856897259
O           0.80703378264248    1.45202689614664   -0.88154481733015
O          -0.91653947760292    1.40038107304837    0.81395408531875
O           1.27496122386730    2.21267173882003    1.39950092610877
H           2.20794257194862    2.11082340549605    1.07150061222373
O          -0.70763123689561   -2.08215021495839    1.62636348972497
H          -0.01280713762629   -1.38651236485737    1.56732837287371
H          -0.59157501183050   -2.60656752778323    0.82541729886842
O          -0.97670428261798   -0.16040052026157   -2.05617625650756
H          -0.47822026073051   -0.97140014572397   -1.85234257382452
H          -0.41571807978962    0.56496679449608   -1.71799335015965
O          -3.32201100371660   -0.46704188031238   -0.99103960003755
H          -3.83629986423979    0.30776830822921   -1.22526736973577
H          -2.43981447160053   -0.36076384028600   -1.45671700078545
O           0.68845840569927   -2.01720209737911   -0.93510761294288
H           1.50599052852390   -2.19265410087342   -1.40196678172234
H           0.88169857832077   -1.29761024442034   -0.28989490689052
O          -2.54729239728400   -0.36252171188076    1.40036566433923
H          -1.91169356716212   -1.16290224804017    1.55696859505971
H          -1.88343545082965    0.43956356885362    1.26079518636207
H          -2.96181511250031   -0.46950546896218    0.44812166966364
N           3.44315462051740    1.60742783598278    0.06639882569843
H           2.75040750314032    1.49987141225089   -0.67109641701346
H           3.81286758616828    0.69493373789414    0.29670963804347
H           4.19995427004887    2.18659084840571   -0.27259130674342
