    26
        -50.45593694  Gyration_radius:  2.49647208272 Dipole_moment: 3.352
 S           1.18954899030860    0.73560153003985    0.06581373057587
O           0.67512004601065    1.31730417125160   -1.15894317164584
O           0.14183550166480    0.69661867230227    1.09620518572344
O           1.75807874303108   -0.59175016098159   -0.14360000262781
O           2.33963369051579    1.62080329988659    0.61241344565925
H           1.92638711087724    2.52492966414254    0.62551109698377
O          -0.87636637458269   -1.52137231495893    2.09853820707310
H          -0.43394454320470   -0.65572073641945    1.94017938224839
H          -1.73241248651966   -1.43713306191239    1.66248853517165
O          -0.95002078427879   -0.64778976419811   -1.97037005695032
H          -1.63810805306748   -0.44143192194484   -1.31331227198980
H          -0.26669872130312    0.03773432146889   -1.83499890758959
O          -0.27659492380812   -3.11902021115323   -1.55963937105910
H          -0.56904734139070   -2.18195263720898   -1.76641768101059
H           0.36831935636418   -3.34605217836387   -2.23216587038757
O          -2.30559360640879    0.21734833975296    0.24111504287994
H          -2.82883629244846    1.01252469253430    0.13618523030284
H          -1.41299937736795    0.50566092277910    0.54389698295349
O           0.82301933304907   -2.73082614383120    0.66965786079847
H           1.32360353139105   -1.85138735592787    0.38809454979445
H           0.09666581655709   -2.38445851436914    1.31896727838754
H           0.34845444129180   -3.00454504610737   -0.21911384254207
N           0.79037643613163    3.70678604194604    0.30643776617454
H           0.99100957823183    4.63964557317238   -0.02929764677110
H           0.05082487467698    3.76292855522257    0.99373603547639
H           0.46774503428345    3.13555426287933   -0.47138153763631
