    26
        -50.46154399  Gyration_radius:  2.43309861204 Dipole_moment: 1.328
 S          -0.25252434686792    0.52560113021940    2.05896207752039
O          -1.37163446530688    1.21122769183409    1.41751256566902
O          -0.56198318351346   -0.85927770568208    2.34557407523446
O           0.97996656712537    0.70011726364235    1.31293155551348
O          -0.02179259163342    1.23712502331009    3.45010080604600
H          -0.74461215781888    0.92202753753605    3.98314775709186
O          -2.63715679649019   -1.21646908421676    0.71826570063720
H          -1.91688355618313   -1.22003613232535    1.38079567835463
H          -3.05757396116086   -0.35859627467170    0.82146214586204
O           1.42591614153839    1.88409986680533   -1.04358942382222
H           1.50928515593531    1.61559594157450   -0.10910775299759
H           1.76808629084269    1.10743985754815   -1.57489408139009
O          -1.06531346600521   -1.00536631019543   -1.40587516213535
H          -0.24521092031080   -1.32052664025388   -0.96529095806307
H          -1.78276742418852   -1.22650887251025   -0.76569034632072
O           1.02152011438055   -1.67001442082691    0.16151365671889
H           0.63659407748579   -2.23852540365101    0.83486436770319
H           1.13364815772383   -0.80726105831104    0.61343461414596
O          -1.02033224309140    1.48461408500819   -1.07387059912506
H           0.02607666744243    1.75875470975370   -1.14494519138991
H          -1.06268160333526    0.46377438745427   -1.33254560062027
H          -1.22166037451696    1.48812780568024   -0.07357837502650
N           2.07997884158206   -0.36497415008121   -2.31145578494475
H           2.03500869943573   -1.03786146332505   -1.55280184603526
H           2.98123498107436   -0.45763031817527   -2.76157842836931
H           1.36481138585356   -0.61545745613740   -2.98334145024567
