    26
        -50.45068688  Gyration_radius:  2.48312778463 Dipole_moment: 1.680
 S           0.64019477640603   -0.47187119188587    1.83881583228236
O           1.52402670159555    0.43126654236380    1.09916955484407
O          -0.61105277951228    0.17462142844117    2.17678738192494
O           0.48553007098475   -1.74270391130169    1.16823571677512
O           1.36682450334204   -0.76783605975940    3.21175462721521
H           1.16393682327231    0.02488306095988    3.69598246848726
O          -0.36935198113708   -0.61242164339991   -2.12102544005172
H          -1.06964427604192   -0.72277430905464   -1.42773585033790
H           0.16585486229678   -1.43523469647250   -2.04878224045434
O           1.22877667794482   -2.55220225669790   -1.27196135244284
H           0.97621766293383   -2.37570780115927   -0.34290462808231
H           2.18128036084680   -2.45332107608145   -1.31185024558238
O          -1.48813457785844    1.81850878115868    0.31050944602654
H          -1.15951825855292    1.27119649793514    1.05908939526029
H          -1.95127179749833    1.21334470281924   -0.27402301881190
O           0.34427806821847    3.22736637732681   -0.92713605278064
H          -0.43113959472733    2.82191247832340   -0.46094908448260
H           0.83040383364747    3.71951913100196   -0.26307597609139
O           1.39789529774992    0.94786341957776   -1.33448712320429
H           0.61208227013754    0.31865854393120   -1.72421578598330
H           1.03575560193363    1.90610109993310   -1.29714230707082
H           1.51019633018120    0.68263898154506   -0.33835405986187
N          -2.02203961864120   -1.19574249217347   -0.08231039764481
H          -2.68367943616170   -0.72232244955020    0.52238935728161
H          -1.22370058829260   -1.43643838607313    0.50667404348579
H          -2.45372094306110   -2.06930478163182   -0.36345427066320
