    26
        -50.46516746  Gyration_radius:  2.5391808802 Dipole_moment: 5.795
 S           0.00942404445046   -0.61941188381418   -0.01910555561529
O           0.27537909287339    0.22416077549936    1.26847824948121
O           1.35533492859604   -1.08127990672630   -0.39567249189822
O          -0.89977579403683   -1.69318592027237    0.28788827343646
O          -0.51046092696921    0.29939478792219   -1.02780102475865
O          -2.08581696545406   -2.01774954445839    2.64528158530850
H          -1.53586053893377   -2.58732821686412    3.18450194297830
H          -1.68276218391984   -2.01538692369938    1.75185700019513
O           1.95820672046768   -0.49973698244079   -2.96362480981089
H           1.35000078330472   -0.94540476866979   -3.55527240856118
H           1.76015084599890   -0.84026471473059   -2.06859666511108
O          -3.01733289442561    0.21417582337059   -0.13737965807068
H          -2.16490257220471    0.32724594026830   -0.59977916339844
H          -3.15203727493996   -0.73655333034580   -0.09237663011030
O           1.26200671450250    1.93455280484939   -2.06390208583057
H           2.07538435333104    1.66175618759113   -0.84236321648386
H           1.62581222057455    1.26191984708601   -2.67541525134451
H           0.43340759784104    1.50672584880416   -1.74449623849865
O          -1.98921564641369    0.64895610645248    2.27663880572541
H          -0.63379006064584    0.44233629668935    1.71211328768667
H          -2.53238519876534    0.67085248934817    1.45394522653883
H          -2.16397120700078   -0.23278740073674    2.66215294170262
N           2.50763497868096    1.16911463783758    0.04282048202601
H           3.51904667619528    1.24367643408827    0.08390275845640
H           2.17278838359519    0.15136833087099   -0.07678751535900
H           2.06373392330676    1.51285328208959    0.89299213131585
