    26
        -50.46154471  Gyration_radius:  2.43327505725 Dipole_moment: 1.380
 S           1.24620946774392    0.63914986401336    1.61832836763708
O           0.12482691806048    0.00897047673566    2.31018086957323
O           2.23722646667053   -0.33088398492636    1.20257749681275
O           0.79317856115680    1.50087059622058    0.54190794409791
O           1.95270681682599    1.58722582081173    2.66581112382127
H           2.44384365077899    0.98359308075493    3.21382177819071
O           0.78651990245866   -2.55847703323076    1.33589809261177
H           1.44182501505784   -1.83431490893317    1.27419439986236
H           0.27664031493005   -2.35769419372953    2.12524057617138
O           1.31150130589811   -0.14185526985041   -1.45222947217948
H           2.10324321109833   -0.59714923078020   -1.15128140591554
H           1.17233078045359    0.56208539737645   -0.78416908583479
O          -1.66739974512784    1.92679155383963   -0.41355741126632
H          -0.76206558053065    2.07410749893350   -0.07997680903215
H          -1.55474634841828    1.60442297700846   -1.35502160145376
O          -0.70250496585333   -1.76994111088383   -0.71096440424443
H          -0.01627958384375   -1.20679188823030   -1.13255201167813
H          -0.20599548325663   -2.28716281494791   -0.03312882032382
O          -1.91823945906201   -0.20145990554904    0.83074285314109
H          -1.17751155006892   -0.09798536687853    1.52447092019926
H          -1.93779786481548    0.74867462137611    0.30640230810322
H          -1.52084288338224   -0.89426740991021    0.14390254889619
N          -1.19378323368977    0.80389994976582   -2.78100631858145
H          -1.70683401755367   -0.06446023580809   -2.87247035268145
H          -0.21010153540298    0.56944480953132   -2.69267682851233
H          -1.31595016014174    1.33320670726065   -3.63444474742165
