    26
        -50.44991610  Gyration_radius:  2.48958814993 Dipole_moment: 0.435
 S          -0.60928199756858    1.88644577053566   -0.19262936486270
O          -1.83901637254658    1.18527524683538   -0.59260926647838
O          -0.46941196315545    1.92223986201855    1.24491392708506
O           0.54337148989932    1.36919599954125   -0.89417195384208
O          -0.79823918808782    3.38361855618932   -0.66221006675718
H          -1.35355255966832    3.71129525418953    0.03669667705749
O           1.13192059029306    0.05755479426859    2.25075426241237
H           1.93790885019826    0.20336468436846    1.69719983231545
H           0.54131968494829    0.80553977608805    2.02360570401385
O           0.49461163287081   -1.22835295674479   -1.52410370158321
H           0.54770491415962   -0.25854641204086   -1.40104912343150
H           0.58072208240944   -1.60784590906203   -0.63913646916841
O          -1.98371997046504   -1.78436618968547   -2.12462681704544
H          -2.30335011024202   -1.04506947194598   -2.64711505531219
H          -0.99517591970270   -1.66111544176097   -2.05265819961219
O          -0.05391439165570   -1.88824188968644    1.16732554502791
H          -0.08846458272420   -2.60230839479329    1.80547677052387
H           0.43741661351016   -1.11097245071602    1.63613580558163
O          -2.29149534421133   -1.06976653742629    0.27170027667803
H          -2.29949588307969   -1.49271231266077   -0.68118519391418
H          -1.41742736573687   -1.40274242342053    0.70335984868917
H          -2.13623986938896   -0.04609091391540    0.01441069569649
N           3.00996296318283    0.57226334356393    0.38065859783444
H           2.26704038627344    0.97809433893616   -0.18753668653795
H           3.43856484636319   -0.16605735329701   -0.16364236194811
H           3.70824146413897    1.28930105055988    0.53043632758834
