    26
        -50.45296541  Gyration_radius:  2.61640939866 Dipole_moment: 2.350
 S           0.70384191095808    1.03254281812366    0.34972585628699
O           1.37507451609138   -0.10962007652398    0.95672098156941
O           1.11435700259827    1.26543006224146   -1.01687174807448
O          -0.75753036401053    0.89092643525347    0.46120549721996
O           1.04939183347572    2.29133505691322    1.20168646436362
H           2.02901238063345    2.34092946831174    1.08328283753354
O           0.28836214725540   -2.33151957297203    1.66755578283401
H           0.69239383467666   -2.54188478760718    2.51172887062811
H           0.78385116740699   -1.54156878976523    1.31523993977390
O          -2.23577959105355    0.20444750596116   -1.70302170479986
H          -1.50488699149824   -0.11078760558236   -2.27505982801801
H          -1.77711284625614    0.66441930345519   -0.97699308178921
O          -3.28223719159204   -1.67562513493934   -0.29943261845069
H          -4.21182523640302   -1.45686411900472   -0.21246263476642
H          -2.89642103409728   -1.00527855997056   -0.95298155877219
O           0.11791778300760   -0.34052031890739   -2.87622196201813
H           0.31422550801465    0.09087660254282   -3.70982089645433
H           0.54848829847156    0.20809398780939   -2.18420660590392
O          -1.85634980744577   -0.99880592912634    1.65333838165847
H          -1.06321753093327   -1.65718456149506    1.71426107977588
H          -1.41363588074499   -0.14492427850647    1.24014768950599
H          -2.48785775657460   -1.34967385525034    0.88646532284499
N           3.48741566554402    1.74976866025498    0.44489794944075
H           3.35951784796482    0.80374344500682    0.78752845663106
H           4.47584332882407    1.97032121841684    0.44425789962236
H           3.14716101578102    1.75142302527858   -0.51097036064573
