    26
        -50.45772495  Gyration_radius:  2.48312665952 Dipole_moment: 5.327
 S          -0.08437802674987    1.17787055939376    1.10412461316041
O          -0.52529439426725    1.43537383207806   -0.28079123854298
O           0.30674896004306   -0.24261512713815    1.21287324535074
O           0.97826728348175    2.04733171947268    1.53060552338181
O          -1.30800821646031    1.39439108289140    2.01317852968852
H          -2.07661513715672    0.98650508573565    1.48279659799266
O           2.42468929769242   -0.55503014220196   -0.29680222854801
H           1.72311008801743   -0.56646395929361    0.39728053383914
H           2.97757548499541    0.23109372574460   -0.06807417118923
O          -1.31794211284503   -2.04941627549618    0.37926247224359
H          -1.16496991319658   -2.81550384560481    0.93477545698922
H          -0.71133078914266   -1.33805887687535    0.73067320692027
O          -0.54794296040345   -1.95170883974006   -2.17129998368305
H           0.03870902689092   -2.69997685816629   -2.29694292589757
H          -0.91244759319532   -2.02571838859263   -1.25829077046747
O           3.39268319475346    1.75491974929953    0.51562998412256
H           2.50400232513958    1.98465833280248    0.87217474789548
H           4.00349988320343    1.87387529857198    1.24474324629210
O           0.79853593180718    0.24824068170928   -1.99529686189524
H           0.22302076130777    0.83539762541512   -1.31875706513549
H           1.60049667127679   -0.10195669345075   -1.37017913713989
H           0.23488274319166   -0.57116729024478   -2.18521639874394
N          -3.03788118846950    0.33692229790435    0.42183906396206
H          -4.04151360269347    0.45504365141047    0.44727202473888
H          -2.81655207241778   -0.65052636458386    0.34774039805215
H          -2.66134565489026    0.80651902001613   -0.39331886273125
