    26
        -50.46933031  Gyration_radius:  2.44174010446 Dipole_moment: 6.753
 S          -1.04690000595672   -0.67089210980292    1.45769416944576
O          -1.02418161368986   -1.42478312674427    0.20239042202039
O           0.04747615560424   -1.08416022914965    2.31740036308161
O          -1.11290073252990    0.75444675774463    1.24172664044291
O          -2.37899632564564   -1.07789407645953    2.19409703351871
H          -2.19147549288754   -1.97951416768085    2.42895976478782
O           2.39450731921640   -0.39751648482046    1.47009015995306
H           1.51309861411585   -0.62729173647111    1.86659771774471
H           3.03639816868198   -0.49190843570446    2.17535630417704
O           0.99803144105724    0.61349028018176   -2.27693812912691
H           1.31968287039700   -0.61233224583029   -1.55342000615757
H           1.08675415214880    1.25091940518590   -1.53351189844218
O           1.12283975987481    1.76584506118452    0.13290679870785
H           0.28114721482415    1.51479272580761    0.55605328872254
H           1.79829846749268    1.26687937980530    0.60933142107553
O          -2.41398595914070    2.19937375799619   -0.62619616879879
H          -2.08608797311282    1.71723699891318    0.15447553866362
H          -1.85492387839277    2.97474026699237   -0.70887785573960
O          -1.55916929675460    0.05458675193223   -2.06344670655773
H           0.01900153158908    0.47813742499165   -2.38411357392355
H          -1.51679594349672   -0.54788354425076   -1.30316980470904
H          -2.01036028860075    0.85335305197587   -1.72836575606805
N           1.40191164032247   -1.46030412662948   -0.83920556276043
H           1.71644938803096   -2.31222439513210   -1.28890289274385
H           0.43499234770271   -1.57550532036955   -0.43694054333587
H           2.02518843915316   -1.18159187367556   -0.06399072398300
