    26
        -50.46258544  Gyration_radius:  2.40943040166 Dipole_moment: 2.826
 S           0.41522650166236    0.21525618353193   -1.70777465384740
O           0.36177219889728   -1.23677719031473   -1.60381397363487
O          -0.88863337789275    0.82533111196766   -1.53501785544552
O           1.42828179140432    0.79868764091677   -0.84975403728042
O           0.86215221395571    0.53768698783378   -3.19076415182819
H           0.11623202435580    0.19645303742153   -3.67080823469968
O          -1.49127767062674   -2.50195306249341   -0.06098611636350
H          -0.85491148440554   -2.93962933761730    0.51281231691793
H          -0.95842269871554   -2.12300142086403   -0.78262134799674
O           1.39404396552662   -2.58479074400648    0.43880701144382
H           2.22538345319982   -3.00325464560106    0.21169751452982
H           1.09139515415339   -2.11343459977317   -0.36904600181286
O          -0.61814255007021    1.08017202591527    2.15022487216079
H           0.23668021657627    0.51477859524602    2.08566727589866
H          -0.39876031481250    1.91846914505026    1.48526282486136
O           1.52388865030019   -0.17288449367508    1.63324493283946
H           1.65943412107005    0.23157999912502    0.75213224555450
H           1.47014657274389   -1.13136327137647    1.45268153271176
O          -2.22721423921594   -0.02539633201376    0.58479083183785
H          -2.13096605983286   -0.99866151645578    0.48856116890407
H          -1.35376445476048    0.56692126595197    1.60850047131903
H          -1.86250426917665    0.33743784467563   -0.25193246490086
N          -0.06524600367242    2.78974475975178    0.38704589875176
H          -0.88012422484359    2.91138472095490   -0.20245987850323
H           0.59595058139472    2.21511069670802   -0.14557935181261
H           0.34937993278256    3.69213260914462    0.57912916039737
