    26
        -50.46258546  Gyration_radius:  2.40941495792 Dipole_moment: 2.825
 S           1.75319307489131   -0.04047078926816    0.24572482512768
O           1.17305936801086   -0.68219943964172    1.40920951516447
O           1.61090936737345   -0.84930871524274   -0.95744739274190
O           1.28620817324178    1.31996313654174    0.06132242160175
O           3.30629877705868    0.06654633514423    0.52725634008584
H           3.50834710450294   -0.84357601190986    0.71198836442639
O          -1.04518498351935    1.56741200463855   -1.21231800601470
H          -0.90966255006618    0.94837985997162   -1.95571880549522
H          -0.16123563559511    1.64566843795760   -0.79903737132174
O          -0.47771660245127   -2.56210178406281   -1.30120138374949
H          -0.81892403501654   -2.13874823227977   -2.09498183796682
H           0.38567304200290   -2.14012580864099   -1.14374191978536
O          -0.00374998653301   -0.19638249427951   -2.96288830450569
H           0.66838794267131   -0.40547238599335   -2.27666376864713
H           0.47606166586169    0.16360741292295   -3.70989605002310
O          -2.21406036702838    0.71674495180653    0.86994494830657
H          -1.49879195474388    1.16035988795737    1.56610269236141
H          -1.88269168006886    1.06055861518328   -0.03919776991807
O          -1.28387785913987   -1.59951439116248    1.04721505640997
H          -0.36732853649019   -1.35127179164920    1.29838904518093
H          -1.95319760889687   -0.29714390586319    0.91566662469973
H          -1.17912353512197   -2.08488973070964    0.19915389411761
N          -0.33621089628982    1.58862304814064    2.30191244399338
H           0.37348282614319    1.64195753073649    1.56394570263030
H          -0.04495808719205    0.84713950249616    2.92780623327672
H          -0.36490700361031    2.46424475720569    2.80745450279526
