    26
        -50.45374059  Gyration_radius:  2.50093476918 Dipole_moment: 2.180
 S          -0.37900777740984    0.67593326441425    1.65061383563003
O           0.45791894240287    1.70173558823392    1.05332700956776
O          -1.78733027299382    0.85156022947449    1.30012638716394
O           0.09117564078293   -0.66465281287418    1.37706291141788
O          -0.30115986668431    0.87278001985630    3.21397887211052
H          -0.73818661566835    1.71186444057810    3.31003626161497
O          -0.63912843350568   -2.75128443056311   -0.16960244123429
H          -0.48456263682884   -2.11563623185384    0.55306572562208
H           0.16567554352560   -2.72556764247160   -0.69811584995499
O           1.59007902415611   -0.87966673607793   -0.85423716029092
H           2.40770285382501   -0.37293523868147   -0.67402509680265
H           1.13344387630759   -0.87265282940432    0.00804359079902
O           0.18761574415241    1.23178877742294   -1.53752229860066
H           0.70943090135879    0.38550880797815   -1.52058302791860
H           0.35317518136591    1.61904048170900   -0.65090838373214
O          -2.61086850824998   -1.72605909671427   -1.54254971761122
H          -1.86350735161071   -2.17854152425486   -1.06181166182248
H          -3.42212837657019   -2.05680668248950   -1.15357337145285
O          -2.21275623584890    0.75465047749149   -1.16012939327231
H          -2.40632708874965   -0.23296874184836   -1.37551652585809
H          -2.14459749012641    0.82763440489802   -0.13104429116601
H          -1.20304363009962    0.96980298653124   -1.46847971467533
N           3.22680840681509    1.01985582346873    0.22500883798886
H           2.36901099236892    1.37705197549389    0.64288640650613
H           3.63474417916215    1.77203824833689   -0.31657146878186
H           3.86582299812333    0.80552643134560    0.98052057475466
