    26
        -50.45374059  Gyration_radius:  2.50093737227 Dipole_moment: 2.181
 S          -1.79265217295607    0.04057505205324    0.33131010377015
O          -1.56329235873298    1.26351988826042   -0.41787467600916
O          -2.02277398958866   -1.10205895527165   -0.55100884102816
O          -0.76085462098158   -0.22195892998380    1.31086783214326
O          -3.13743441291228    0.23827074016287    1.13217931660082
H          -3.76544050762311    0.27752959367289    0.41921093264812
O           1.61457433064748    0.92614955808391    0.75334865872337
H           1.46436842301416    1.89099449009123    0.81877226662174
H           0.77166659090511    0.55116521167990    1.07113883280046
O           0.69393492423360    0.74196163423884   -1.69828538459875
H           1.25947764863707    0.77544606343630   -0.88108738394128
H          -0.16891932809106    1.09619843433679   -1.39258989021234
O           1.31911951337030   -3.15470977143932   -0.69546128575594
H           0.92099568878589   -4.01484064486951   -0.55220238061118
H           1.38045439505984   -2.72042665001255    0.20009236436104
O           1.31202693998199   -1.92317525034068    1.60828536633744
H           0.45554765221922   -1.45865402655532    1.63746317704681
H           1.97316707397823   -1.22282395077325    1.59837131769357
O          -0.10443646074178   -1.57046347805428   -2.08194757265923
H          -0.95633419614931   -1.45371732159259   -1.50780205308090
H           0.34579642163968   -0.59370581323780   -2.01796269148226
H           0.50298813198579   -2.23293724180094   -1.58052663756179
N           0.28979024971906    3.31159150906823    0.67266185590175
H          -0.02356867987263    3.77579112981274    1.51610732434823
H          -0.48793794000747    2.75281983855104    0.32489581821650
H           0.47973667347976    4.02745887048319   -0.01795636027179
