    26
        -50.46411422  Gyration_radius:  2.39245378364 Dipole_moment: 2.406
 S          -0.27310208014378    1.23232970763642    0.71037268299572
O           0.57069520323547    0.24589419291686    1.39252066040583
O          -0.14375901061372    1.06371564026329   -0.74887197274637
O          -1.65114591471561    1.15427673503693    1.13926874524245
O           0.26194522447226    2.64017474533389    1.05590571060992
H           1.11544553238840    2.69420749888041    0.53613387806737
O           1.91889210827632   -0.50320890945733   -0.70700320475930
H           1.23436842811164    0.14214902220037   -1.00298011065889
H           1.83727789021017   -0.40626509049220    0.26103863019244
O           0.29371509994221   -2.45370111880970   -0.88902611349250
H           1.07846517994754   -1.78483992164516   -0.90819420638586
H          -0.50409200156704   -1.92455327700694   -1.33722011959950
O          -1.56603161715072   -0.95690815074027   -1.64984947810588
H          -1.12493295405049   -0.10051967149827   -1.43364524028674
H          -2.24088895960957   -1.07660631001687   -0.95655731489717
O          -2.85842273628492   -1.08114044718522    0.74071472239316
H          -2.45327249243110   -0.19042563306250    0.93092852752154
H          -3.75505792758335   -1.04142071979877    1.07614625921562
O          -0.47002188415921   -2.15282267421963    1.47043218203909
H          -0.05689740391564   -1.26543753012102    1.61758934344838
H          -1.42355323327828   -1.97298637266512    1.37389506131860
H           0.00362060158873   -2.47872023034957    0.13487581740861
N           2.37998213791604    2.58401406210998   -0.50162276140409
H           3.02838863151786    3.36067927200185   -0.51688681547246
H           1.89254254836710    2.54788820456750   -1.38857680538063
H           2.90583961951582    1.72422694610871   -0.39938808769176
