    26
        -50.46411416  Gyration_radius:  2.39246161968 Dipole_moment: 2.406
 S           0.53083679667622    1.34075406407854    0.13653497474068
O           0.16073264248249    0.64355026627338    1.37240868294992
O           0.88546734037523    0.35126349435240   -0.89778120366145
O          -0.51116665641309    2.23611162540746   -0.31245170835088
O           1.79852427243749    2.17749913758192    0.42062568680462
H           2.51687471786772    1.48495373521432    0.49775353908013
O           1.03696844159868   -1.70667710761543    0.66832185405222
H           1.15420240194850   -1.09858882286265   -0.09927281836409
H           0.79328730030627   -1.06252150234322    1.36027429104156
O          -2.79027938426359    1.17366339912224   -0.85144881329056
H          -1.93868558565594    1.65341841834654   -0.65586930273464
H          -3.41745643304723    1.84600247000961   -1.12089442920957
O          -1.23722033862552   -0.73972648635413   -2.00306598623558
H          -0.39470471838522   -0.28665769058991   -1.75904402174465
H          -1.93776748926999   -0.08554990387880   -1.82495434468001
O          -1.35693459595971   -2.24826706194365   -0.00615633063016
H          -0.37040939313455   -2.22470366622067    0.29336751758401
H          -1.35450273751348   -1.74271193949610   -0.93453026184210
O          -2.26020275486971   -0.34629509639481    1.33825503153438
H          -1.83581412260801   -1.54565800367095    0.63433126112192
H          -1.39426914121065    0.10340266327677    1.50520163031913
H          -2.70552285135682    0.20688113597200    0.67007154934278
N           3.51605988673386    0.18634004881752    0.44273823259865
H           3.42368242531804   -0.08113467998789   -0.52962965532514
H           3.19469208683334   -0.58811895505654    1.01116064343734
H           4.49360787972990    0.35277044797537    0.64405397146168
