    26
        -50.47172610  Gyration_radius:  2.5253738249 Dipole_moment: 1.042
 S           0.33603922054805   -0.76612214441170   -1.81870240624721
O          -1.10031933090518   -0.90347524147623   -1.62341044425772
O           0.68438616611463    0.42732353901953   -2.56120716015533
O           1.05692608784117   -0.89747320588405   -0.56285649590451
O           0.79627405226009   -1.98345979549110   -2.71963319844325
H           0.65951798844161   -1.63437370157645   -3.59379511690229
O           2.15186354845420    1.16225536823799    0.87564036329287
H           2.00319713088247    0.35576079899087    0.35509122493648
H           1.65935066496798    1.84632380206312    0.39674981962226
O           1.09347027569632    0.50394279712994    3.22775497033700
H           1.54591327874431    0.86491090150995    2.42556272976617
H           1.77442567186966    0.06773577703337    3.74093078478631
O           0.50696003149406    2.46604698956736   -0.94901656832754
H           0.62563129157924    3.27589994648784   -1.44811153116558
H           0.62291125606091    1.72486547607152   -1.59424152831439
O          -2.07133727933870   -2.51079130017283    0.30421710992260
H          -2.94140233193044   -2.81397983640851    0.04283247181302
H          -1.72113517566747   -2.00586945088999   -0.45809428094961
O          -1.78475252055445    1.21866452110399   -0.10515646350746
H          -1.08347591068574    1.85711018676492   -0.32070896630322
H          -1.73136438964699    0.53289807007210   -0.79630863732618
N          -0.62396938961616   -0.56554519769303    1.47340637539885
H          -1.18057218106688    0.23227305408607    1.06271052319633
H          -1.23869820180479   -1.38174741317519    1.56640524624395
H           0.08722983325211   -0.80113449674969    0.73952304619505
H          -0.12706978699024   -0.27203943420495    2.34041812229347
