    26
        -50.46944507  Gyration_radius:  2.4865481639 Dipole_moment: 3.804
 S          -0.50190378123044   -1.03472389937631   -1.61481100519020
O          -0.40677328054834   -0.19404553744828   -2.78021262151551
O           0.68547788624775   -0.93221123274982   -0.75541941615654
O          -1.71252335043995   -0.89676445513316   -0.83575996862502
O          -0.49802283989946   -2.52994505042986   -2.16382622046900
H          -0.24107602632789   -2.40772013649505   -3.07173490589318
O           2.33123027659174    1.10027988186679   -0.53617421031666
H           3.14099596740912    0.94138679869082   -1.02314786511859
H           1.76601932096259    0.30268747617752   -0.67061809673188
O           2.06996496130581    1.41093953347757    2.16178643261731
H           2.29142290665657    1.33668154121957    1.21166009004821
H           1.89265415774361    2.33912175581889    2.32353817969347
O          -0.25428783232324    2.03408228960966   -1.27715213933577
H          -0.38583902429613    1.33401676605610   -1.94050688251866
H           0.68646842732759    2.01571611773591   -1.06034017997253
O          -1.46163004618984   -2.46510913844366    1.32712814907466
H          -1.67370006479902   -3.37169127906487    1.10444893096707
H          -1.63215805705290   -1.94309462948562    0.51837746895987
O          -1.95800630991727    1.36068767303706    0.67382465536501
H          -2.31553965332815    0.61644849671073    0.16547748097868
H          -1.41624765711096    1.84400760691669    0.01394535492409
N          -0.07305227789845   -0.17253369543713    1.68182169601695
H           0.71079348539674    0.32918742729295    2.14123725249702
H          -0.86485888841013    0.50029813960360    1.43521933834638
H           0.26417906884199   -0.55253880957829    0.76351618843388
H          -0.44358736871385   -0.96516365057213    2.20772230392466
