    26
        -50.47049406  Gyration_radius:  2.50814827498 Dipole_moment: 4.349
 S          -0.36747344710060    0.19042712038003   -1.50771777246250
O           0.42084927528229   -0.99224427696419   -1.11039777304853
O          -1.77111782068937   -0.01667676774685   -1.21451910561791
O           0.15988033164670    1.39090880112770   -0.89105499440499
O          -0.19093103714635    0.35872303614388   -3.04624746300070
H          -0.36646107420810   -0.53860213626177   -3.39131940416472
O           2.59951903776985    1.36095135051365    0.14206380189217
H           2.94173701315413    2.24247658501768   -0.01652082473040
H           1.73785794448244    1.32227065436455   -0.32681529972354
O           1.40889407465391    0.81601560192050    2.47438424904060
H           0.64621122699822    1.42760781578284    2.34002592448208
H           2.02317011968388    1.02672874373913    1.73654418994405
O          -0.23191911903758   -2.27379313919688   -3.30066696686819
H           0.54978635803990   -2.62344250734442   -3.73445756643168
H           0.03394070752566   -2.04472015499026   -2.38690861059048
O          -2.34773949248609   -0.30556282849071    1.27679017107972
H          -3.26218900792937   -0.58175710282807    1.35371800552730
H          -2.18498569142413   -0.17247060162874    0.30185497596778
O          -0.76868063311068    2.04593427694466    1.57405477184033
H          -1.50135772796740    1.42272762537008    1.65935591936469
H          -0.49035044203598    1.98640124494970    0.64201815367057
N           0.19340513680023   -1.23645198611526    1.49770794745978
H           0.38080872552610   -1.19373956203717    0.45799289205223
H          -0.81687902005685   -1.03491900560067    1.61992777183809
H           0.43938046551331   -2.14582597334139    1.87250591582079
H           0.76464410611967   -0.43096680370864    1.97768108106344
