    26
        -50.47027092  Gyration_radius:  2.49044313676 Dipole_moment: 3.331
 S           0.44515066307397    1.15103744768322    1.63612313537463
O          -0.05854805485356    1.94503983310998    0.52534877240297
O          -0.61495507354778    0.36091026298332    2.24986037462498
O           1.60979253507387    0.36019098987636    1.30111989648087
O           0.91981655617281    2.18775563995820    2.73545579097778
H           0.12332030844634    2.68014230359755    2.90425609613043
O          -2.93954212194747   -1.21841096739284   -0.68486649905432
H          -3.70713920481500   -0.76370748262146   -0.33492386209034
H          -2.37340560092231   -0.51008362499921   -1.09584352684316
O           1.30278434414820   -1.82504455995815   -0.20784136889213
H           1.24859617317878   -1.40881449757399   -1.08719389743045
H           1.59801345571949   -1.10810139923875    0.38866128189222
O          -1.31576757543967    0.66491283269421   -1.48686602066673
H          -0.96667178441712    1.19197734648814   -0.74324188816135
H          -0.53234389464787    0.32276829430170   -1.94779755488526
O           2.17070876405686    1.76177837320856   -0.90360658794125
H           2.46447085251217    1.24626679953970   -0.13717295473367
H           1.32913651697116    2.13443016225567   -0.58496262936967
O           1.16989039565326   -0.16864979955493   -2.38604675433822
H           1.60926813705154    0.58541773349425   -1.90528391287331
H           1.54523597553676   -0.18616226284300   -3.26688149585616
N          -1.01764190809139   -1.90546293834486    1.01410963920999
H          -0.11801580200488   -2.01795452380442    0.45169212062750
H          -1.17024202802415   -2.70619242299978    1.61689864621663
H          -0.88929864220721   -1.02143090801469    1.58785894308168
H          -1.83261297666627   -1.75261264178699    0.36114426610348
