    26
        -50.47356266  Gyration_radius:  2.43497940787 Dipole_moment: 2.300
 S          -0.43144287788768   -1.22275687958059   -1.75420015877621
O          -0.05066498066249   -1.71008555649545   -0.43085604365454
O          -1.86656197013930   -1.06071959904571   -1.87321551015935
O           0.32674467331502   -0.05766591421836   -2.14430107750477
O          -0.03993480698508   -2.37164870451458   -2.77557388974650
H          -0.77584660123061   -2.96502814380364   -2.67139797804032
O           0.14226199504267    2.29730840724248    0.66435186967000
H           0.89935199026382    2.07064258545549    0.09291860114252
H          -0.64589579097788    1.94956397694641    0.20657098915317
O           2.12646574898643   -0.93940099338199    0.88871262524439
H           2.41272416637522   -0.20757907050893    0.31696533754408
H           1.41371339485521   -1.38171347803146    0.37978305333195
O           2.15325915709735    1.19962723551007   -0.83630756834014
H           1.47133541911102    0.70179226154032   -1.36082593134454
H           2.72913011693622    1.61217879657948   -1.48130013581393
O          -1.71701809678420   -0.94050905939704    1.48585797752599
H          -1.18899486823580   -1.39550349717942    0.79467188431896
H          -2.17366266643424   -0.23442531591534    1.00646486410659
O          -2.06964248480501    1.06966637752920   -0.42520986035514
H          -1.97773996680536    0.28657425376337   -1.02366465289493
H          -2.69996312471502    1.65196564869803   -0.85356894651412
N           0.39847314148643    0.33663579114418    2.39986827131782
H           0.55638117681236    0.49329959942859    3.38768129598758
H          -0.49395529380442   -0.20927729435514    2.21361708997991
H           0.31246162407850    1.24257247156846    1.84979237599516
H           1.18902092510678   -0.21551389897826    1.94316549782661
