    26
        -50.47455451  Gyration_radius:  2.4258899415 Dipole_moment: 3.600
 S           0.82691675967791   -0.51631475964838   -1.18639205991241
O          -0.55447189097701   -0.98804032635373   -1.04036254512470
O           0.83303145228510    0.89701595040704   -1.53934410300265
O           1.61355329230824   -0.80424629679038   -0.00251487399252
O           1.47196815763110   -1.32183525659942   -2.35538801478085
H           0.93221633653043   -1.06231233133329   -3.12781822506675
O           1.89824904352594    1.94921584345517    0.68029381220368
H           2.55854885665642    1.27316606202083    0.85035657985578
H           1.52301500093993    1.70443889463519   -0.18801533848697
O          -0.21873210972170    1.55557243233196    2.27036553763867
H           0.59643693401051    1.87356462080045    1.81991463888462
H          -0.89694937608655    1.55973645444450    1.56362287358215
O          -0.41398752035035   -0.05705834807504   -3.70589380178826
H          -1.13321449901031   -0.45713067456163   -3.20708005256689
H          -0.04454627285254    0.62991889350897   -3.12651274631646
O          -1.93834149042028   -1.92539362681095    1.02947766085653
H          -2.67015913289955   -1.30344874039222    1.04789833507648
H          -1.47617024596817   -1.75786454775061    0.18156059500572
O          -1.61228222839604    1.24815373780082   -0.02617984499394
H          -1.22813802371441    1.94650744817551   -0.56243127666792
H          -1.27211720714738    0.41905975551557   -0.41633043026920
N           0.24819738098480   -0.99287166461142    2.24014678950800
H          -0.64895587917893   -1.46043880160968    1.95796742556190
H           0.67994825785657   -1.44625505710324    3.03710712759246
H           0.87626062726473   -1.02079461166902    1.39276604224216
H           0.04972379748892    0.05765494964892    2.41278590492800
