    26
        -50.47441741  Gyration_radius:  2.50853261783 Dipole_moment: 3.666
 S           0.94310981565579    0.00088624921558   -0.58872185672011
O          -0.22185772790653    0.23447647257906   -1.43002312849460
O           0.97126349555019    0.95935333718406    0.53048292846009
O           0.98062622612700   -1.36001223373397   -0.07672560635675
O           2.21698710183748    0.22341726710376   -1.42999973142131
H           1.96595644994843    0.98709951828330   -2.03313435916388
O           1.20101246643698    3.44045192982980   -0.36903582900179
H           1.08624035757458    2.55593981232210    0.04053804440238
H           2.04826707468907    3.76862886904975   -0.06291356490946
O           0.09571030120119   -2.32247683325415    2.27671061490440
H           0.68550470001328   -2.05758390015098    1.54445442584041
H          -0.49834587006930   -2.97038288863413    1.88259879126918
O           1.14483417938368    2.14889619981674   -2.72591576647476
H           1.13923490649478    2.83652691943461   -2.02717714385956
H           0.32943014544172    1.64163222091795   -2.59204825212500
O          -1.19046300858668   -2.85847774852097   -0.32478522000627
H          -0.35760290681124   -2.33428339665659   -0.32765640303535
H          -1.21877916022268   -3.31315504205845   -1.16767564469157
O          -2.41219889553859   -0.44511700163195   -0.10908942306135
H          -1.73716350176843   -0.07693878202676   -0.72033478777264
H          -2.27600568988410   -1.40949307592363   -0.17655649373362
N          -0.99532643525409    0.08527522510518    2.01232870848999
H          -1.72710404937042   -0.07747186815164    1.24198397774037
H          -0.17808339475437    0.54939532425153    1.52337496940349
H          -1.34841824518015    0.65069887135270    2.77631231803719
H          -0.64682834501169   -0.85728541566756    2.33300842228954
