    26
        -50.45882058  Gyration_radius:  2.54874735247 Dipole_moment: 5.494
 S          -0.99846662572324   -0.18499985489825   -0.31730242916532
O          -0.50606492841865   -1.54526577128273   -0.09136431275532
O          -1.12818967929672    0.09207058226882   -1.74935726192557
O          -2.18780709045876    0.11232462480757    0.43744990727696
O           0.14412083863747    0.78090701857951    0.14567274189824
O          -1.20153848152890   -1.60867795274770    2.47063125135885
H          -2.10829608365484   -1.29428354970700    2.41192968937782
H          -0.92752894716227   -1.75309858207063    1.54441126873178
O           1.41272491046045   -2.40873688478705   -1.57186473810330
H           1.14473436569702   -3.27629554598638   -1.88031538036324
H           0.71722314832155   -2.12746184270490   -0.91520440779433
O          -2.30882016208273    1.92143291612701    2.37519218574157
H          -2.57579074497096    2.76079493939639    1.99885573109570
H          -2.39003388743788    1.26124681560622    1.65447545937445
O           0.98058331551405   -0.31159791850444   -2.94043638581620
H           1.61515467277311    0.39847457311719   -2.47376377468920
H           1.23746997320126   -1.20878094669865   -2.52803927379651
H           0.01837124858949   -0.11571729830647   -2.49699802581182
O           0.07869781049939    0.70812036083539    2.65355663183975
H          -0.69081606312290    1.29161548442646    2.80610065628465
H          -0.27128582622241   -0.20492310593478    2.79089868289344
H           0.16717290941960    0.75767108183155    1.18104173383090
N           2.35799268051206    1.33629973265639   -1.57334771162882
H           1.69074730523541    1.34642172131036   -0.80098253427219
H           2.48655003012328    2.28343806652983   -1.90407846145380
H           3.24309533110825    0.98902132613228   -1.22716124213962
