    26
        -50.47155370  Gyration_radius:  2.49983683536 Dipole_moment: 5.056
 S           1.68284028582472   -0.01075452015312   -0.48533782466848
O           1.32662019979422   -0.32580351414632    0.90827406473129
O           0.45775107350138   -0.04221662508571   -1.30240876551141
O           2.38136405817612    1.23731673094845   -0.61922988664607
O           2.60750022332231   -1.14724287144101   -0.99763330808714
H           2.22854621576820   -1.96758266252025   -0.59455873202461
O          -1.00879925902494   -2.12335299231740   -1.00474912998759
H          -0.45413965455457   -1.30126605284485   -1.13897650742312
H          -1.25462603768448   -2.41891950781576   -1.88277799302249
O          -1.05002030520274    2.09096195421819   -0.75274741001251
H          -0.37440207956815    2.77298725913118   -0.54996672064788
H          -0.54857818189588    1.36854716197486   -1.18315912448572
O           1.26043065447605   -2.92491426812944    0.35002150422279
H           1.24048650198278   -2.15749229647773    0.94577102850496
H           0.39066007351794   -2.93733742370840   -0.08194984911997
O          -2.69887815713233   -1.27309940649270    0.91833360610829
H          -2.11779218440202   -1.69868996499937    0.25266992314902
H          -3.49846482914758   -1.01746872892377    0.45487232786442
O           1.10500842390655    3.43416102510574    0.05687873397177
H           1.64926169970637    2.63427320421008   -0.12848123079039
H           1.55463469416519    4.15732969811700   -0.38341343095511
N          -0.98900774307255    0.73733898212872    1.47401071927293
H          -0.02416952593538    0.31097476634586    1.33794015866929
H          -1.13350323917196    1.38733569898282    0.62869096863603
H          -1.69868368288479   -0.02869922544159    1.42681278089075
H          -1.03403922447237    1.24361357935367    2.35111410735640
