    26
        -50.46564432  Gyration_radius:  2.64385980216 Dipole_moment: 3.212
 S          -1.19506377746220   -1.76746426981592   -0.97147360709735
O          -1.91047660207186   -2.62915058654191   -0.05993342852884
O          -1.47934080626112   -0.34417899119137   -0.72459690031277
O           0.22649811979367   -2.00844988299307   -1.03820967488523
O          -1.79184594196259   -2.06731166062429   -2.41752016472009
H          -2.64209144449641   -2.44437856062113   -2.21276871728082
O           2.02777418836772   -0.06973987295785   -0.69774332445767
H           1.62537878731251    0.55326774678575   -1.31948967601553
H           1.59311834145222   -0.91815798942040   -0.91398405926262
O           0.13930832102431    2.40662435236327    2.47392849116489
H           0.46952603025310    2.77893312880733    1.62687762833462
H          -0.66536523426466    2.88148945755183    2.68479227625846
O           1.01355466577383    3.04190231927212    0.00953110958267
H           0.56517391615484    2.53781747647960   -0.69534783524286
H           1.94443329320948    2.81961590913314   -0.06054459701761
O          -0.01164523566275   -2.63583312194712    1.78676972279579
H           0.69309544693087   -3.03809119031779    1.27234603093754
H          -0.81096170355985   -2.73352980850139    1.22633515645932
O           0.02599001767600    1.39964719818587   -1.95211171000519
H          -0.38368061431872    1.65322999138238   -2.77990966747869
H          -0.58102431637966    0.73891662448944   -1.53358739933070
N           0.23253348761658   -0.01911415642164    1.29053116331447
H          -0.56891607887669   -0.01400507922466    0.62205795788762
H           1.09292312985177    0.05171004267696    0.68946535608954
H           0.17367852035830    0.78573629793359    1.94668336017102
H           0.21742549962630   -0.95948538348535    1.74790249885950
