    26
        -50.46774716  Gyration_radius:  2.51183385486 Dipole_moment: 3.568
 S           1.79399069291484   -0.67121145980287   -0.00282057648553
O           1.56798807230680   -0.39271394699036   -1.40570732064153
O           1.69420903699192    0.52459481886048    0.82058421118280
O           0.94532245839290   -1.73469355922024    0.51251537459480
O           3.28556073857335   -1.18013727080667    0.11205599817907
H           3.38904579955325   -1.32558282758756    1.04720658290408
O          -1.69851182687358    1.38024906098429    2.74641634989136
H          -1.16538493117510    1.84054924955511    3.39603205018301
H          -1.41398404436059    0.43995707750851    2.78161308659513
O          -0.79598214703228   -1.15264525369869    2.49783771605096
H          -1.52662192480871   -1.68250300233256    2.16913708101778
H          -0.05873814360417   -1.32907149667851    1.88208674437977
O          -0.54763167922703   -0.86877541066869   -3.05992740371848
H           0.32880552440370   -0.90044748282366   -2.64094514074281
H          -0.68140759210980    0.05519803195931   -3.29069359063111
O          -1.46464693678956   -1.27052272904389   -0.56580598268504
H          -1.34800722838506   -1.25223660632223   -1.53898632807973
H          -0.63889686857331   -1.66160007898001   -0.22330318094336
O           0.35617943657191    1.88966877141521   -2.12491324146867
H           0.87162407624729    1.09184356559655   -1.88021583579317
H           0.99542538551962    2.52984668211164   -2.43914447499839
N          -0.79792799484582    1.15930056523004    0.23786615443127
H           0.19771129089167    0.97674098529845    0.53238186488174
H          -1.20397091910196    0.22731623965447   -0.07930657136169
H          -1.31581543455979    1.50141344413218    1.07303504714235
H          -0.76833484090908    1.80546264265015   -0.55699861387488
