    26
        -50.47172728  Gyration_radius:  2.52462684481 Dipole_moment: 1.003
 S          -0.16674450606212   -1.04793107860041   -1.69522363501039
O          -1.54066697625295   -0.80317901551605   -1.28164750543502
O           0.30395234807730   -0.08295308188264   -2.66737905169494
O           0.71426027173484   -1.18777892454698   -0.54655570058298
O          -0.15004186835099   -2.44498022145582   -2.43975633485590
H          -0.28226295239111   -2.17669961598626   -3.34262452825672
O           2.46607427671298    0.71467574643612    0.35566013839446
H           2.05327168253385   -0.09144830706986    0.00416318954109
H           2.05737469072736    1.43062377072644   -0.15443425156389
O           1.72451469530640    0.64333192856357    2.91052561492713
H           2.09494424107800    0.77680283600916    2.00293800645789
H           2.37398081127407    0.12506936901242    3.38689573395181
O           0.84537756909946    2.13131374463659   -1.40503009485584
H           1.04257230533614    2.81912023054235   -2.04306197767635
H           0.68593116353367    1.30692341945248   -1.92844036008509
O          -2.46657765047402   -1.89161715835732    0.99892580311247
H          -3.40087768696103   -2.07809523557643    0.90162962709865
H          -2.16183100322709   -1.57387083890958    0.12448371397548
O          -1.47388653429032    1.59286311346376   -0.04378712272743
H          -0.69980458415881    2.00981460043441   -0.45949242203569
H          -1.69545807513290    0.83348964764718   -0.61385829516701
N          -0.46723077220240   -0.20226123974225    1.62541066817232
H          -0.90422466212431    0.64511408967700    1.17116515129300
H          -1.21433788360759   -0.82805702734051    1.94399832880845
H           0.03283845408906   -0.69518472642390    0.84635958651148
H           0.22885264574695    0.07491396479418    2.34913575770552
