    26
        -50.47049392  Gyration_radius:  2.43017090339 Dipole_moment: 2.847
 S          -0.95090164310662   -0.94501575200649    1.29456247359777
O          -1.46863257194622   -1.47327689147082    0.05024283784989
O           0.42196884044907   -1.38531783079680    1.52796689538985
O          -1.09481771032893    0.49362085103303    1.41686636243489
O          -1.82238780269651   -1.56358114741782    2.45863658865001
H          -1.80209844045175   -2.49117522779217    2.25045623768563
O           1.35588105419956    1.16119542554635    2.25973907510898
H           1.67644184837318    0.28661788125088    2.49568148303166
H           0.40522755818324    1.02649881814278    2.08561708259241
O          -1.88283006557045    0.28543208386639   -2.05613939860906
H          -1.99990465093422   -0.26673107729899   -1.26618910392048
H          -1.53754247905620    1.12912222215653   -1.73136842583844
O           1.86519776908507    1.74511428828863   -0.31580525955106
H           1.85130699587137    1.69561096110932    0.66547516593736
H           0.99106944238769    2.10302249795699   -0.55384066083222
O          -0.13576611934299   -1.69784806585947   -2.38645603646875
H          -0.64984368029379   -2.10756473680441   -1.67594072422040
H          -0.68956953049255   -0.92338246856462   -2.62470140579625
O          -0.80368993458395    2.31216817599643   -0.47166227670902
H          -1.20818310232066    3.13363582220478   -0.18838447133955
H          -0.96887861026314    1.66112515927552    0.24749648499356
N           1.70772517749971   -0.84150371736985   -0.70736310223616
H           1.82260174561788    0.22373702663161   -0.67072930380736
H           2.61120979149736   -1.28997918953210   -0.81725811611798
H           1.25889354347242   -1.13146266914746    0.20187397188366
H           1.04752258493651   -1.14006241950218   -1.48877638363486
