    26
        -50.46450388  Gyration_radius:  2.67305282077 Dipole_moment: 1.888
 S           0.53193304437575   -0.13114060794085    2.36473619394030
O           1.27996689836235    0.14805466387227    1.12954597693693
O          -0.38176907204449    0.94857650912622    2.68588586111625
O          -0.06913956611082   -1.43930881297824    2.32233700969826
O           1.60772576140973   -0.14365534238428    3.52868667126592
H           1.70885755346533    0.78452626592619    3.71427739198280
O          -2.14039791641522    1.11840517249846    0.78707660097065
H          -2.90731406815488    1.60006598397279    1.10161634182602
H          -1.50718286677031    1.08308189222587    1.55037577336622
O           0.84218120168229    1.56679444538267   -2.95577873103730
H           0.55059835477813    1.77726867713870   -2.03262183380235
H           1.67069780641650    2.03210549659753   -3.07772427274304
O          -1.92959786910371   -1.57863964892244    0.42698006433198
H          -1.47463839495330   -1.68517915331038    1.28559641713505
H          -2.19225448574443   -0.64018954572324    0.40579119993765
O           0.81845641880453   -1.05212563795295   -3.14291654553227
H           0.88218028343769   -0.06188836831137   -3.11739784946025
H           0.07014471276256   -1.24776253904147   -3.70925397505236
O           0.19231027061471    2.04304846977780   -0.44180909151605
H          -0.73515427480260    1.88844050670626   -0.21059422568078
H           0.69695660645903    1.45282670286743    0.14843971141234
N           0.50755433986246   -1.70350448560321   -0.57011216324682
H           0.92725609719819   -0.96752170379728    0.06165252981498
H          -0.52984849413860   -1.72014196613599   -0.32972936479364
H           0.66257096634600   -1.46976675675742   -1.58635957038533
H           0.91790670223774   -2.60237022719790   -0.33870010042847
