    26
        -50.47455450  Gyration_radius:  2.42608748726 Dipole_moment: 3.606
 S          -1.44523272542275   -0.32068244445110   -0.40422967936448
O          -1.27303710378550    0.87572727766001   -1.21730295798713
O          -0.39690943059318   -1.29595942914876   -0.72340102334538
O          -1.48820073261043   -0.03400152547649    1.01680187811763
O          -2.81359989856946   -0.97407136305026   -0.76733807956417
H          -2.74624906274717   -1.10712374654020   -1.73329969737836
O           1.58833443021580    0.42749877317671   -1.20823703240289
H           1.16934451879937    1.11487702207092   -1.73246008757439
H           0.88659622043127   -0.23721809464438   -1.06300592038155
O           1.58635378163256   -2.35188549327079    0.70012362949850
H           2.34186182304941   -2.11394834909853    0.15684258856315
H           0.79856959290981   -2.15428058856232    0.15131418980696
O          -0.60709990578458    2.65488008491841    0.66962238756725
H          -0.85647761323368    2.12471549326926   -0.11228417992308
H          -1.21308360799816    2.36295875762092    1.35477883985281
O          -1.73916674340831   -0.88162306280268   -3.17945941403844
H          -0.99929669436301   -1.45291868316002   -2.95100647426697
H          -1.52753528886525   -0.01368095630843   -2.79724659655031
O           1.84150594200450    1.69417521881669    1.16685083611299
H           1.98698374207044    1.28672413509672    0.28806460657693
H           1.03238116648497    2.24092517921557    1.04496062786161
N           0.78158077742821   -0.37831817629194    2.30471460943179
H           1.31238509565235    0.50149192944437    1.96240019219363
H          -0.19085138323710   -0.28858447086714    1.90513018464222
H           1.20910811147915   -1.22430217911834    1.85261331239191
H           0.76173500846277   -0.45537529849825    3.31505327015919
