    26
        -50.47361557  Gyration_radius:  2.43374080147 Dipole_moment: 3.325
 S           0.90878638466596   -1.06980266954672   -0.58254850275958
O          -0.41786709018696   -1.46218992895670   -0.07936194657149
O           0.77558494558922   -0.27655566516864   -1.78994469022906
O           1.67794563226843   -0.40041345712402    0.44863171343602
O           1.68183164325276   -2.38034523472901   -0.93113805813294
H           1.12187471952505   -2.80593410249799   -1.60691417318009
O           1.29022966447253    2.15938927967213   -0.22432629880916
H           1.53408630383724    1.25197182412769    0.04047065713887
H           1.31076962337050    2.14220296657420   -1.18452603068798
O           1.38222020174441    0.38790051579610    2.96307456334207
H           1.75560286235942    1.27248277678801    2.95659351009262
H           1.67894200179405   -0.02743983871817    2.12798175049713
O          -1.71540292399793    0.64059776137932   -1.66268108900107
H          -2.16874626017073   -0.15951703782846   -1.38893202822815
H          -0.78062762657510    0.37868247279158   -1.79971584759145
O          -0.45108050877846   -2.68597586518919   -2.47952132935929
H          -0.79155831769812   -2.39501108735508   -1.61909294614343
H          -0.25777061072642   -1.87938552690410   -2.96981361294253
O          -1.30747765567158    2.25886276472219    0.43481556135617
H          -0.35672330095023    2.43829363269923    0.26203010081261
H          -1.62413465002909    1.84132535463180   -0.39507861986112
N          -1.07057441756750    0.14627893870871    1.92006575990165
H          -1.25258300718622    1.07440055161564    1.38712045070992
H          -0.85883674118600   -0.57932916656406    1.18534463600814
H          -0.20155607512530    0.26017044529100    2.49857501733305
H          -1.86293477725542   -0.13065969419110    2.48889144299473
