    26
        -50.46596374  Gyration_radius:  2.62222298535 Dipole_moment: 1.061
 S          -0.47751173786009   -1.57446818189996   -1.04675289256926
O           0.38873703464780   -1.63459779957481    0.11855934870006
O          -1.82460058791489   -1.14235146820527   -0.68416904536969
O           0.07312130585956   -0.79671772458309   -2.13199751183002
O          -0.59919246603017   -3.06659980064717   -1.56883495159409
H          -0.61539581416017   -3.57893288860841   -0.76558136909975
O          -1.30483736134675    1.41181344496634   -1.18371297436834
H          -1.71670534282772    0.53905841102555   -1.02332297281267
H          -0.82717867622313    1.28847576370078   -2.00973987650086
O           3.01823373172768    1.53056261657595    0.07385712795196
H           2.92605584528821    0.98044186442775   -0.73802258423843
H           3.71298605814590    1.11746680512882    0.58914845670534
O          -1.01415769784645    1.13939090227979    3.01670917150665
H          -1.63794718008623    1.86440223462808    3.08129726359211
H          -1.52955624093890    0.35755591278099    2.72295270940991
O          -2.46980581420681   -0.81508851219296    1.86417468929783
H          -2.17297997321109   -0.97979234853947    0.94294970077818
H          -3.42773387936181   -0.81399386116445    1.83002343500116
O           2.61471052359600   -0.09397654397591   -2.00715792988308
H           2.79633068757547    0.16427508652218   -2.91238811779709
H           1.68866101348927   -0.42449074627826   -2.00628599485910
N           0.48945063600408    0.92323159153353    0.78103216737332
H          -0.15579476939130    1.30314049928423    0.05113380891052
H           0.08907952491206    1.11467134388705    1.72302010834532
H           0.52339363700471   -0.11647936836951    0.63351751758839
H           1.45263754308130    1.30300277730325    0.64959069573114
