    26
        -50.45882002  Gyration_radius:  2.54959450757 Dipole_moment: 5.472
 S           0.67883935924876    0.33446702423157   -0.74188973660634
O           0.74344762028450   -1.11987758136673   -0.89935804621260
O          -0.05210014446277    0.94729464847360   -1.85297833542135
O          -0.23718362474167    0.60416768043257    0.49931083303091
O           1.96775255238240    0.92922916248157   -0.50186253395803
O           2.64842038435413    2.14985270129496    1.75372032464878
H           2.49430195073741    1.75996362909452    0.86706369288317
H           2.44615166792448    3.08256083860099    1.67323346341522
O          -1.36134240567345   -2.36874281850735   -1.69440123395310
H          -1.08058323175143   -2.93967111292363   -2.41188790059320
H          -0.52672936071199   -1.97128205708024   -1.32128676173122
O           2.68933655935090   -1.44630333438951    0.87738547146427
H           2.00898580311736   -1.48447433050020    0.17772397329242
H           3.31178069211047   -0.77738240147678    0.57801188477563
O          -2.28435522766045   -0.03958658066198   -2.12089348156609
H          -2.72578490387325    0.20214425884648   -1.18697289567846
H          -1.32290060217227    0.44379185372299   -2.07507420074181
H          -2.04054087401883   -1.02768495638562   -2.05115490590348
O           1.17573431056321    0.01997223029198    2.48930208039464
H           1.75999596222961   -0.66844950206979    2.08959115361333
H           1.73244789402903    0.82304284770117    2.52622944802334
H           0.30452386279931    0.34838950029020    1.34459778750917
N          -3.07942235826388    0.49795640186364    0.23676144300088
H          -3.61262834885819    1.33942295748620    0.41172917789937
H          -2.13188348255330    0.63016130167911    0.59279313428574
H          -3.50626405438889   -0.26896238113660    0.74030618413442
