    26
        -50.46641715  Gyration_radius:  2.48312414942 Dipole_moment: 2.518
 S           0.07913747170246   -1.91401516784865   -0.37744740341265
O          -0.62053564783774   -1.17468707623870   -1.41811401841038
O           1.49390837800667   -1.58905923248395   -0.35383207717266
O          -0.57583690389443   -1.78793491508350    0.91058717285626
O          -0.02330134973136   -3.44821816658499   -0.76357551059057
H           0.46284218856774   -3.50505690339079   -1.58061283708730
O           1.82193055458378    0.98990129445390   -1.16740659698243
H           1.74895787791918    0.02973053807309   -1.01860432196959
H           1.86239177194172    1.38128183694067   -0.28678734879527
O          -2.77223189938909   -0.26567656805900    1.27669042058101
H          -2.00444729044414   -0.86833236985286    1.20334524283138
H          -3.53532168638587   -0.82746024350074    1.41450748991948
O          -0.11696577981069    2.41664475603176   -2.39818938495700
H          -0.31686841198681    1.99005899990054   -3.23287692027500
H           0.69676391725665    1.97685759288368   -2.06530164578761
O           0.93695562112210    1.55843135142411    1.49420006720412
H           1.21065198094896    0.65789735686343    1.82989176679561
H           0.84435614252649    2.11579849492880    2.26783067339766
O           1.54792576335467   -0.87739400831932    2.20845204927215
H           1.98820182660326   -1.16375911579749    1.39164948255360
H           0.66955891046528   -1.28465712950817    2.11319522556245
N          -1.09902829208345    1.14115756361259   -0.28144658704199
H          -1.02485363244135    1.85945381685371   -1.03221475787552
H          -2.00877051437232    1.05768916725947    0.18539627966735
H          -0.90708614351432    0.21016152556776   -0.75014842198978
H          -0.35833484311093    1.32118661187548    0.43081199171162
