    26
        -50.45881996  Gyration_radius:  2.54977342957 Dipole_moment: 5.474
 S          -0.39372089805470   -0.66541349033109    0.72423661156368
O           0.95243225326341   -0.40992318679210    1.24060871567726
O          -0.48051863476259    0.06062977288482   -0.66065411649322
O          -0.66149678981014   -2.06636739372480    0.52840237920411
O          -1.40249582204285    0.01617367453851    1.53793979337581
O           2.08613846082065   -2.39371218387949   -0.11225700542340
H           1.81280260213129   -1.66141871551666    0.47331275106267
H           1.48449863989628   -3.11364644352848    0.09802995245319
O          -1.09131093625574   -3.18475867156381   -1.83914586997050
H          -2.03204828520147   -3.17548967515495   -2.01876522352881
H          -0.98720254752998   -2.87451454899898   -0.91456704930827
O           1.54450797502107    1.97102962805917    2.01700007302849
H           1.94259185082212    1.87980402855836    2.88460678246912
H           1.41785280963365    1.04230373423601    1.67754958722396
O           0.85802711551583   -1.36956149968766   -2.22949664757194
H           1.50764172248793   -1.75883009211074   -1.59592465395205
H           0.20738678219514   -2.08307345933945   -2.38352625305455
H           0.08476262897160   -0.48830449047830   -1.33325330700607
O          -0.93989089736506    2.42028367555753    1.72556826924511
H          -0.99733177237776    2.71721171642938    0.70852097165431
H          -1.21298186141686    1.37874530961171    1.69721320190199
H           0.05776254144518    2.38332319677068    1.93521431483012
N          -0.95913821126427    2.87430417803131   -0.77895008078205
H          -0.81923047815123    1.89257252685318   -1.02112556513035
H          -0.17468852233115    3.40626545650811   -1.13328197396579
H          -1.80434971564738    3.20236694307387   -1.22725565751038
