    26
        -50.46422124  Gyration_radius:  2.48224887191 Dipole_moment: 6.200
 S          -0.11495871485287   -1.41096845140395   -1.51478429668276
O           1.30070789868596   -1.13465574900520   -1.56527517221313
O          -0.50967663950290   -2.12041173896222   -0.30332157292475
O          -0.95339934842033   -0.24178519595581   -1.73916226195939
O          -0.42113709036433   -2.38663092605973   -2.72304790344843
H           0.30427146458843   -2.99835548364427   -2.65740536955816
O           2.04646456046843    0.01543220699192    0.77113121205508
H           1.69053173516232    0.91072960846823    0.57998036801661
H           1.86773355822398   -0.50980415561450   -0.02759443511193
O           0.88143524037914   -0.24689921134087    3.06225672475395
H           1.44082805847461   -0.27103651623407    2.23265208704340
H           1.00922194567738    0.63303917143528    3.42240852644368
O           0.71558226006069    2.28176643677935    0.16878330874718
H          -0.22912569625816    2.10749515224754    0.27033139693680
H           0.88412002706181    2.22570100960714   -0.79453000677051
O          -1.95962680410761    1.27168684426563    0.11521999158670
H          -2.69305508737970    1.76582749224851   -0.25415452729835
H          -1.60723254585360    0.71146232821977   -0.62405566894635
O           0.98177742661770    1.50619838561012   -2.41373037311627
H           0.19201265305597    0.94326793346312   -2.34106207854448
H           1.71372916558107    0.88289394732345   -2.36311718688372
N          -1.32898957096562   -0.78460809022065    1.76014501573195
H          -2.03417982032178   -1.28728967005277    2.28762933736575
H          -1.71222552385542    0.08137602619710    1.34061731245947
H          -0.47896262954247   -0.55985844788763    2.36870868784683
H          -0.98584651267797   -1.38457291650444    0.94137689445981
