    26
        -50.46770718  Gyration_radius:  2.51940749751 Dipole_moment: 3.824
 S           0.94946650797158   -1.47169096926491   -1.30491632166306
O          -0.32322536088535   -1.88635987485541   -1.86635408454968
O           1.15949047333639   -0.03789284668368   -1.43949341582201
O           1.14374702592854   -1.93100014215194    0.05912923422075
O           2.07646828342673   -2.17723884083550   -2.16079431735699
H           1.86480172726632   -1.90847176193006   -3.04908528833712
O           2.43702451372226    0.43795878526253    0.84251522737787
H           2.58073498471698   -0.49004575136079    1.04916647014672
H           2.03742446106065    0.42181714214471   -0.04926798925180
O           0.35494758443644    1.20800077089083    2.32443434626538
H           1.22275041383965    1.04945410670672    1.88390397716098
H          -0.05317490620586    1.96334860840653    1.83599954149622
O          -0.66893257383427    3.06566757402644    0.73837971168057
H          -0.85832978693647    2.54943088915142   -0.08266131675918
H          -0.05807255384590    3.75674395335089    0.47893796313637
O          -2.35422445771761   -0.82929775443808   -0.67586431214639
H          -1.61193507400957   -1.26166262272441   -1.17886148649334
H          -3.16630111946744   -1.19039984996963   -1.03448292639056
O          -1.02425760728911    1.53626572744467   -1.40259655484971
H          -1.69031283536154    0.86313197360834   -1.20664112394004
H          -0.18784326346546    1.04641519849706   -1.51162937270867
N          -0.78885740032657   -0.95428448375459    1.56215756087601
H          -0.37471886268711    0.00307045510318    1.93584968614481
H          -0.01095483936998   -1.42651824267755    1.02826092076706
H          -1.09611169734492   -1.53834018339870    2.33236015329302
H          -1.55960362694151   -0.79810185057109    0.89155373770108
