    26
        -50.46904318  Gyration_radius:  2.57381662614 Dipole_moment: 1.985
 S           0.60263506719528    1.08219970768091   -1.44244993720243
O          -0.13209493305664    0.13133426058149   -2.25616800034106
O          -0.27663386108936    2.09751699443021   -0.87270373035729
O           1.43878497286476    0.44324067908336   -0.44754320670874
O           1.59621971093012    1.85516129596829   -2.40651335229156
H           1.03240822730111    2.35056084579403   -2.99384968629871
O           1.07557449723313    2.44080335921041    1.40868981485905
H           1.77200413337537    1.85527870842388    1.09035394929669
H           0.47754012438507    2.51602800400170    0.64142307486021
O          -0.02826985153653   -3.31746269359360    0.64662714845703
H           0.80450656345085   -3.71421916690437    0.90720248044995
H           0.06867829718673   -3.08977095193428   -0.30428138627205
O           0.32448096016402   -2.44955831036036   -1.86663444658026
H           0.23791909753541   -1.47875700090899   -1.98592009827287
H          -0.08142511362519   -2.84496263254700   -2.63970959986297
O          -0.21469259696385    0.97391538671893    3.22242645323731
H          -0.96890326185512    1.47604860743344    3.53398146972678
H           0.31494264506177    1.59352659064199    2.66311028918280
O          -2.25242170939738    0.37314900659291   -0.50494160754552
H          -1.72101392757504    1.18970634287241   -0.58448134150013
H          -2.10025207544232   -0.07451335574105   -1.34425120705499
N          -0.39988807321776   -0.69678057933434    1.12683612091887
H          -0.33347361140004   -1.73720176271063    1.16129153338711
H          -0.38575373221291   -0.23745343302776    2.06477121588751
H           0.41067366011645   -0.33385568077130    0.57469917084988
H          -1.26154521941466   -0.40393422158303    0.60803484916446
