    26
        -50.46980144  Gyration_radius:  2.51613055025 Dipole_moment: 1.663
 S           1.64432967324739   -0.16231791343577   -0.04681222884844
O           0.59867372516567   -0.04800327888863   -1.06740990287717
O           1.28386633175932    0.61883400488805    1.13859656055814
O           1.94036532981393   -1.53524623991146    0.26303252188712
O           2.93039980866176    0.50316836017772   -0.64918077260179
H           2.68612087074237    1.43875729098039   -0.73330458171183
O          -0.14336222183934   -1.25092705771694    2.34283700727485
H           0.43107452875695   -2.01004370634096    2.20684757331155
H           0.40077769181612   -0.47668864962393    2.09065456445737
O           1.66990182867199    2.86781140099510   -0.07076715429113
H           1.41543059782608    2.12742479963495    0.52734066849401
H           2.13973952682086    3.50508771937699    0.47092329546081
O           0.00381059298123   -3.29938703721434   -0.39504834972001
H           0.73496445355816   -2.68427046013266   -0.18809388291701
H           0.41956792875516   -4.06111860372480   -0.80070750204444
O          -0.88416105709979    2.17603002989169   -1.24224603572135
H          -0.33610085860839    1.37151097814953   -1.32265266533625
H          -0.28872946684451    2.82792928260873   -0.85814520638734
O          -3.11342985480776    0.99912528950684   -0.34993862645774
H          -2.33129815654589    1.54331623307147   -0.60198323265404
H          -3.74886085810298    1.11515223027328   -1.05777670032897
N          -1.52744152225253   -1.12262730895935    0.06784189597695
H          -0.71448614315010   -0.73257168644907   -0.47942180634951
H          -1.70232634304418   -2.06606737672075   -0.27679566482729
H          -1.18380910761724   -1.18977152949470    1.06181368283336
H          -2.32501726866893   -0.45510680093558   -0.02960347719240
