    26
        -50.45882049  Gyration_radius:  2.5492228908 Dipole_moment: 5.484
 S           1.03993560069689   -0.09339713928195   -0.19449560527400
O           1.68119142849346   -1.21773181482302   -0.82489581242603
O           1.81055892904513    0.47608172359739    0.91284664605477
O           0.64924669747545    0.94706636418412   -1.14775446857870
O          -0.28097632282865   -0.58645280301479    0.48727861371245
O           0.02972447495782   -0.75548231334711   -3.08933985878259
H           0.81352014257133   -1.31239801047319   -3.08892770539500
H           0.25202426862404   -0.01187046004653   -2.49649747057193
O           0.66292881039607   -3.66710876046292   -0.89401660119935
H           0.98340769108094   -4.15652162209636   -0.13563405484553
H           1.15051074509947   -2.81607195337863   -0.89517143736301
O          -0.19843504353162    3.19549513235956   -0.22797094842162
H           0.28467867884135    3.87754382456701   -0.69806707254508
H           0.05440619790884    2.33486529609938   -0.66309409028333
O          -1.41991096133332   -1.99840468103764   -1.24707103020819
H          -1.08410248646217   -1.56631338263943   -2.06895489360625
H          -0.88459916814913   -2.81217102766779   -1.16129631706807
H          -0.79524334597960   -1.15427101886373   -0.21001801253094
O           0.59363089878408    2.30165064871707    2.01507533886868
H           1.19542201439314    1.51710740514229    1.58743400220606
H           0.27552227996474    2.81250160223481    1.19118614001851
H          -0.26403810787312    1.78825637314457    2.36954130014145
N          -1.44997610199314    0.91000739101330    2.62196655211876
H          -1.23863088194836    0.18732424133215    1.93276274956743
H          -2.34513530419595    1.32104316618573    2.39039521624865
H          -1.51566112404782    0.47925178855959    3.53471880015814
