    26
        -50.46883592  Gyration_radius:  2.50829635735 Dipole_moment: 3.171
 S           0.95561667363567    0.95089617112755    1.27464518575785
O           0.82256812832708   -0.34548170547309    1.90732293817334
O           1.87976973872233    0.93770418668105    0.15179797339474
O          -0.32489454335332    1.52783007638686    0.89051002221479
O           1.56181809646722    1.90994774613602    2.37612341346279
H           2.07565527392547    1.31423201693152    2.91243410884706
O          -3.50016808996635   -0.61291585138913   -0.18876528130183
H          -4.27283160613390   -0.04958147455070   -0.13268855072289
H          -3.07163000915590   -0.57510090486861    0.69613062530058
O           1.00003209922563    1.14269305785248   -2.37911505084083
H           1.33673512920721    1.14406501854256   -1.45842035525369
H           1.23456888378847    1.99579293129580   -2.74567131998283
O          -2.04002386608382   -0.19682781095110    2.03720075270757
H          -1.51455595685161    0.56957777986894    1.74475266325363
H          -1.38376460960338   -0.84414323480703    2.31158022346099
O           2.70679265439904   -1.18401673998466   -1.31846464742723
H           2.47206223743747   -0.82843736149419   -2.18017783056425
H           2.62777115701983   -0.43327850756496   -0.70354650232664
O           0.47551663253952   -2.06504507628180   -0.10453285930980
H           1.32768680707667   -2.00334571033168   -0.58534840626216
H           0.63658367722836   -1.61168236579443    0.74562263754460
N          -1.01816302253298   -0.14770527850346   -1.07965180711674
H          -0.65880376510139    0.18205129763236   -1.97952822746443
H          -2.03912583543758   -0.34479971561579   -1.05160003731875
H          -0.47764545123622   -1.02226079622467   -0.77248742269457
H          -0.81157045359485    0.58983223138781   -0.36812224550812
