    26
        -50.45882034  Gyration_radius:  2.54907241583 Dipole_moment: 5.484
 S          -0.86350275606893    0.49974613252384   -0.36163524321288
O          -0.87203735751486    1.68749402831097   -1.17519608582566
O          -1.88785977136107   -0.47635838540292   -0.73876722595521
O           0.48291786938980   -0.26301855593088   -0.60176051778387
O          -0.92316380197608    0.79137720018831    1.07201657350594
O          -1.27392992074017   -1.16293042272977    2.70868322835606
H          -1.98039335385825   -0.89555625905170    3.29944788571300
H          -1.07054299171250   -0.36307042961841    2.14944460469160
O           0.54417909817054    2.99841862955850    0.90821455381975
H           0.10353682070954    3.44571419640514    0.18002362274395
H          -0.03538850834032    2.24227056318565    1.12309916384041
O           1.15560488777111    2.45948831782982   -2.70259143838066
H           1.04117933371870    2.08885065117440   -3.57835296041096
H           0.33423070526118    2.25073875223103   -2.20882946458970
O          -1.72633805611874   -2.52209228113052    0.60957467679242
H          -1.62048609288663   -2.10536616599772    1.53469119972613
H          -1.86901827647445   -1.66103486428593   -0.02159392029521
H          -0.75596896519816   -2.86137207550765    0.34732687838307
O           2.26358722975143    1.49820695843392   -0.44539579112602
H           1.82773796743615    2.13002264952384    0.17575814321338
H           1.24912353138023    0.42944551209242   -0.51812645827897
H           2.15533202550143    1.90705884472844   -1.32706563995284
N           0.67902077268584   -3.05456624597014   -0.03101761168737
H           1.29981203008598   -3.27026353658688    0.73839960929391
H           0.87130205161206   -2.10189636300804   -0.34332577080057
H           0.87106555878397   -3.69130685096715   -0.79302201178365
