    26
        -50.46969778  Gyration_radius:  2.40398624953 Dipole_moment: 4.737
 S          -1.00327735353319   -0.97274909636127   -0.40076910472877
O          -0.88402922349284    0.31867821865617   -1.07657016006473
O           0.28219960130779   -1.34684263486235    0.20159172114357
O          -2.05833567485204   -0.96265303102111    0.59584195709166
O          -1.35265961532721   -2.04370284315887   -1.45960588705500
H          -0.77088342075131   -1.79625214863585   -2.23040019543484
O           0.27012866610910   -0.97033435072582   -3.15671299646363
H           1.15083087433722   -1.05320429467809   -2.73762005725697
H          -0.09207610047272   -0.13763623206587   -2.82329334874828
O           2.33707343033798   -1.18196942439899   -1.41586786993426
H           2.85753992539453   -1.98395129522950   -1.35343276391811
H           1.61718207292485   -1.26547296053152   -0.74654002957226
O           1.48528819517254    1.47732035029719   -0.37157268669406
H           0.71094544567640    0.96268745045941   -0.65327119679155
H           2.24469970999607    0.93555363978897   -0.59903635292045
O           0.78076741909626   -0.42172042878170    2.61907372570386
H           0.69804106007763   -0.75992428458571    1.69621389374192
H           0.78924512774114   -1.19871507351637    3.18046422946712
O          -0.91764538829038    2.70541865915918    0.24168291249495
H           0.04477660648120    2.78662351187891    0.17843449585842
H          -1.13225303365470    2.01959467156910   -0.41675904840723
N          -1.42436413512443    0.99685641026134    2.17616458877175
H          -0.52221252502808    0.60571164725545    2.54285304138464
H          -1.83089172231772    0.21257862030946    1.57858882493429
H          -2.05618899209287    1.26873760739997    2.92141900647207
H          -1.22390092970967    1.80536732151730    1.50912333092370
