    26
        -50.46805719  Gyration_radius:  2.49266156283 Dipole_moment: 2.765
 S          -0.43695812586845   -1.79442634256111   -0.60460456933464
O          -0.94524086279552   -1.41093160763736   -1.90558763491572
O           0.87170049939340   -1.21266383964432   -0.33635702869757
O          -1.35114628786220   -1.53971336806390    0.49473184338283
O          -0.24325034485043   -3.36733976831772   -0.66804935849848
H          -0.18249077457837   -3.53207292995814   -1.60371521524769
O           2.98178407035815    0.44131318469689    0.06365378163808
H           2.39403557005656   -0.31646846731461   -0.09190820327163
H           2.71417981262345    1.09845237855325   -0.58575737841228
O           1.99915995508520    0.67519511296498    2.50595673842535
H           2.45658694261846    0.71219600152366    1.62918550805998
H           2.34127978379266   -0.10816410921476    2.93984489241491
O          -1.06547136617945    2.15044189727628   -0.27750511824135
H          -0.34102093816560    1.92327189937248   -0.89683107967058
H          -1.84108094412924    1.65226797667175   -0.61822318703908
O           0.70946405245714    0.93274114283484   -1.89932658440005
H           0.20081926429696    0.68709855658843   -2.67583477971922
H           0.76885451660880    0.10929964312833   -1.37358785300764
O          -2.81903055035136    0.28236409041470   -1.07141905675554
H          -3.09324260369402   -0.22990341822768   -0.30618603160198
H          -2.19963541295275   -0.31047500134583   -1.54082800583124
N          -0.58342945903137    0.63059499426225    1.78643536951090
H          -0.83880693102183   -0.30072952234410    1.36503327122557
H          -0.74163541215057    1.35869972241409    1.00604112221720
H          -1.18186690584036    0.83297658256303    2.58053025319258
H           0.42644245218207    0.63597518136359    2.08430828457447
