    26
        -50.46816167  Gyration_radius:  2.53473661161 Dipole_moment: 2.168
 S           0.32359252551093   -1.38898396150834    1.27395247024677
O           1.27560467233103   -0.74507349146587    0.37147750874961
O           0.03760082852411   -0.55196006631158    2.42089990390272
O          -0.86369810827027   -1.85182635309927    0.58541474895547
O           1.04450132042962   -2.69203745095004    1.81131728387241
H           1.81773748116856   -2.35487373106307    2.25291911645483
O          -1.01403051225184   -1.72508325450434   -2.08134494719016
H          -0.97773274751899   -1.78167510561306   -1.10486432217750
H          -1.32291709465150   -2.58070731108992   -2.38257215793133
O           1.41218855962991   -0.55661436528915   -2.39683198102808
H           0.57061248879857   -1.04405953636038   -2.48004801815119
H           1.64317103655044   -0.65097623852202   -1.46105582577940
O           0.33658612857104    1.83639580995603   -2.67618391715295
H          -0.41761178405254    1.66805765893996   -3.24386819409480
H           0.86768171260053    0.99597894623587   -2.68173440588018
O           0.51600387137132    2.08218192745300    2.50588514448821
H           0.35899298766349    1.11587387185970    2.53889722682232
H           0.86208885260529    2.32743314601623    3.36413795304379
O          -2.24525082729364    0.39092629208119    0.95764917028922
H          -1.93533861238736   -0.52042999142927    0.79157683507628
H          -2.11151936520247    0.52720391964922    1.89990191802088
N          -0.04001351237169    1.52605433861233   -0.06597036054229
H           0.26705136965345    2.22849496079951    0.61331666152968
H           0.04051318561142    1.83432017275707   -1.07031239290429
H           0.56720736825953    0.68139524730384    0.06712980745508
H          -1.01302183485754    1.22998457549436    0.19031078406284
