    26
        -50.46862966  Gyration_radius:  2.50086900599 Dipole_moment: 2.849
 S           1.17583689620708   -0.80559341070145    1.64463827209544
O           1.71263205719986   -1.88773652212966    0.85254067725659
O           1.80827067296214    0.47400373091503    1.37062664425497
O          -0.28209613988416   -0.73895909463475    1.58823961399912
O           1.49863539440263   -1.14586567701766    3.16262060607735
H           2.43390472669221   -1.32328527501806    3.15199133700242
O          -0.97786731926796    2.52801613746499   -0.55289752901999
H          -0.79200689367761    2.32231457265267    0.40678508902426
H          -1.17004571685012    3.46557659007569   -0.59094259374835
O           1.10498649210247   -1.91967228349658   -1.72913893558656
H           1.25748595982050   -0.96539568035183   -1.85709727115060
H           1.50523227322925   -2.09407016090821   -0.85162862241260
O          -2.16415210215882    0.58465508241736   -1.97859219558898
H          -1.84811623749724    1.32214596406492   -1.41458007781902
H          -1.65584165199902    0.64644775651406   -2.79056116434054
O           1.09953298130493    0.72554888243857   -1.21549094835777
H           1.50426127598313    0.65703234491820   -0.33294994960314
H           0.45342117849147    1.44136470543372   -1.13954353944190
O          -0.35249840569989    1.90254263004748    1.90967994886150
H           0.59465852852194    1.69560313641517    1.80251523810505
H          -0.73221913477733    1.01774054622901    2.02501709231942
N          -1.26230532019987   -1.59646496364367   -0.69543248110972
H          -0.35551942837042   -1.84618263797259   -1.22198047603947
H          -1.71622113706415   -0.78094830250370   -1.17841674370778
H          -1.89379634448645   -2.38662254677033   -0.63035309063331
H          -0.94617257499338   -1.29219553443749    0.26495109955978
