    26
        -50.46861799  Gyration_radius:  2.49029685073 Dipole_moment: 4.695
 S          -0.68585170336584   -1.04611773051085    0.96188836247350
O          -0.37503544865635   -1.76483874563667   -0.26705553476447
O           0.27675678861018    0.06742408621748    1.13623209873353
O          -2.04432079334880   -0.56447244790553    1.00803301556452
O          -0.46425613740863   -2.00821644895237    2.16188009661275
H           0.48529155551752   -2.26267163513168    2.09969163680929
O          -1.91856174292439   -0.36016904580115   -1.84800345816963
H          -2.72211162342447   -0.32972323474212   -1.32020400167771
H          -1.36122588953296   -1.03693797517881   -1.40137221389337
O          -2.56070799878231    2.05732273900201    0.71336328901156
H          -3.20231610585568    2.32575769515923    1.37166675614775
H          -2.40518250843869    1.10326363224187    0.87256797867662
O           2.11734740406279   -0.77044877945714   -0.48833710921764
H           1.52886661377600   -0.34603212025495    0.18215626127002
H           1.51267507569824   -1.38534426719007   -0.92745568248674
O           2.15723863775815   -2.28246191922664    1.85458690640617
H           2.51498842954586   -1.65812290849814    2.49023526648000
H           2.34679574234916   -1.91369840261350    0.97240813803693
O           2.03833050934591    1.54612336489984   -1.93186242738375
H           2.17915132569935    0.67124674979413   -1.51085507722517
H           2.87190795042054    2.01360115815866   -1.87187828384887
N          -0.45031265193252    1.62173931990545   -0.86944072561770
H          -0.14871505851022    1.10957668484204    0.00343209137843
H          -1.04053313742647    0.92967408260289   -1.41530678333930
H          -1.04821168312393    2.39634724501671   -0.57658293388892
H           0.39799246993153    1.88717890322419   -1.39978765604297
