    26
        -50.46711282  Gyration_radius:  2.49267652348 Dipole_moment: 1.552
 S           0.09493773316576   -1.09075667688693   -1.65333817818064
O          -1.18725557106946   -1.36593967079800   -1.04645029975306
O           0.14665509113921    0.09523439374890   -2.48030399738717
O           1.16838626356354   -1.07473297552620   -0.65250375250142
O           0.40004297274109   -2.31765848078752   -2.60701889437240
H           1.10847950847539   -1.99982582083249   -3.15773146091081
O           1.70661276020574    1.51616451603053   -0.51808537051337
H           1.60606966978987    0.54409888682630   -0.60878051506081
H           1.60795304890667    1.84849804889616   -1.41361648005029
O           2.16725503171408    1.25746236499625    2.32638453704988
H           2.26434446083208    1.36336142291883    1.36999644087903
H           1.94046199962801    2.12473604495746    2.66683100143129
O          -2.07574722549310    1.16001347324930   -1.46409636975268
H          -2.35139828170290    0.26507674143128   -1.23194781160855
H          -1.29660514966718    1.00198002679714   -2.02698362225741
O          -1.72467825793787   -2.34156373271758    1.39028677576821
H          -2.64623232818008   -2.60008136787717    1.42725720338787
H          -1.54660781925856   -2.09783238365844    0.45818025808127
O          -0.72794692244751    1.88966502111305    0.71145369567283
H           0.13659618807500    2.02409598372693    0.28263294526836
H          -1.35860749356891    1.74325827654502   -0.03187099565688
N           0.10725549936465   -0.40406294535439    1.68557810329965
H          -0.38186176272574    0.49678679234923    1.38569237920853
H           0.56628175135939   -0.78658728910720    0.82242297580061
H           0.84296942589946   -0.14232003647294    2.35257951040285
H          -0.56736061279317   -1.10907062358284    2.01343194177379
