    26
        -50.47166722  Gyration_radius:  2.38843548944 Dipole_moment: 3.163
 S           1.14743279101863   -0.57474605204087    0.60867591177483
O           0.06264756256075   -1.46578912617746    0.21072063385472
O           1.24755172561545    0.57314409642520   -0.29710266202017
O           0.99615712921592   -0.13019461120820    1.98546330691725
O           2.47406064357866   -1.37280577603700    0.50656578025025
H           2.59316892025664   -1.48332600283043   -0.47015535582322
O          -2.24837682130397    1.56274904158235    0.73097621252304
H          -2.03925430700581    1.33807521652910   -0.20458344956960
H          -2.30888877692628    0.69580729881980    1.19704732839648
O          -1.09556576926165    0.86163922290826   -1.57012752614212
H          -1.20677466473127    0.04448524100987   -2.06939404987683
H          -0.20742562667627    0.78884701320337   -1.17199585165983
O           2.29954896886106   -1.16819131560212   -2.09083725566265
H           1.45301165657158   -1.53257760693479   -2.40813011323922
H           2.09687393110728   -0.25440327331183   -1.84668037018194
O          -0.36536364532745   -1.83953721218711   -2.33883712705904
H          -0.74468988079717   -2.70573385144623   -2.49391985898269
H          -0.27090706239631   -1.75086835953707   -1.36151088846234
O          -1.84154877467312   -0.77663800785284    1.93084872353309
H          -1.23155912602773   -1.15229270497269    1.26509215224179
H          -1.30952057028544   -0.70124669783306    2.72646532119854
N           0.10790123157305    2.25005880312901    1.45444074185864
H           0.23664776907081    3.04921143087426    2.06588459972054
H           0.47839909329017    1.34441852038491    1.87139394717902
H          -0.95740114798205    2.06099585558270    1.18838246221331
H           0.63387476066707    2.33891886747287    0.58131736697223
