    26
        -50.45882059  Gyration_radius:  2.54876366602 Dipole_moment: 5.490
 S          -1.05401773223415   -0.13637209257276    0.03555314445543
O          -1.69503495304433    0.62858505000704   -1.03601988787440
O          -0.60234887685509   -1.44083924817070   -0.45257592018320
O           0.23907551359366    0.68662279360117    0.35712101266149
O          -1.84996304961456   -0.23113551738481    1.23143377084331
O          -0.28459440396765   -2.48396249643387    1.96845234363407
H          -0.38954205121628   -2.26006195564963    1.02361474315063
H          -1.12434004525984   -2.24573330397083    2.37172844320126
O           0.54893282066524   -1.55436390005292   -2.75060993906917
H           0.12466987106096   -2.26912297910387   -3.22881961755048
H           0.17482125906895   -1.58621962452088   -1.82703342383530
O          -1.11352634114823    0.73853591520235    3.58926449726525
H          -1.44560842985208    1.63303512163146    3.67315732957632
H          -1.50326386636433    0.37933365194394    2.76400936262971
O          -0.22193407969848    0.85561301261180   -2.98725582470045
H           0.10898294289587   -0.10665908670485   -3.06079461915448
H          -0.93084600775144    0.79957719980154   -2.17807408408058
H           0.58892652886038    1.39489897619166   -2.56694734866787
O           1.11851973400875   -0.29406180543372    2.49337164301497
H           0.64884936924639    0.29208072583631    1.22294619399082
H           0.50269647794775    0.12952934824895    3.12368985485241
H           0.78707371850318   -1.22022532418519    2.40759391610366
N           1.67847137669429    1.99604995771377   -1.73467512288211
H           2.60191870964278    1.61535568389568   -1.89659431413868
H           1.35187363242717    1.67405817990612   -0.82277522182539
H           1.74020791238412    3.00548171758859   -1.71976091142605
