    26
        -50.46711236  Gyration_radius:  2.49278205126 Dipole_moment: 1.513
 S           1.63371978476181   -0.84409428653876   -0.74075846126896
O           1.19129567709886   -1.67890353246575    0.35262861315049
O           0.98059585246476   -1.08727415431814   -2.00873662208951
O           1.57072117476681    0.57879954432664   -0.38676784299882
O           3.16692621506856   -1.17828437394187   -0.95460876518641
H           3.35395680523355   -0.81966046178320   -1.81633625034819
O           0.84562727427087   -1.04092843694448    2.93180012627013
H           1.07851676111697   -1.32226400137432    2.02264967215167
H           0.74371454757921   -1.84487340365544    3.44236584022990
O          -1.08082342021861   -2.39715194164969   -0.94162152385782
H          -0.51123578891489   -2.61684699164150   -0.19480718867419
H          -0.45335661354271   -2.01672340754528   -1.58249516119818
O          -1.29941024234438    3.14750526509485    0.31875305450202
H          -0.96381108730684    2.77381581912441   -0.50771046153401
H          -2.25187064104400    3.19639357215569    0.21900496109943
O          -0.50557587594344    1.37596759428582   -1.82656001086964
H          -0.45521669204626    0.88380883987508   -2.64960252025981
H           0.32390478827259    1.14486965339534   -1.35552868512576
O          -2.13663480788393   -0.08354152648046   -0.15765269276361
H          -1.91999787752134   -1.01018028964994   -0.41469941831588
H          -1.78634491822429    0.46523358395455   -0.88266496507522
N          -0.30786298718395    0.88461879245932    1.46267911219944
H          -0.55819527361314    1.87592325698412    1.56033567082248
H          -1.11333433660721    0.40515526821618    0.95068954468442
H           0.52318711248681    0.81602497676578    0.82508428872174
H          -0.06849544074581    0.39261066134423    2.33455969573373
