    26
        -50.47033164  Gyration_radius:  2.48376476597 Dipole_moment: 2.312
 S          -0.98508437876002   -1.44990874249738    1.10591897539308
O          -0.19537951546447   -2.55969090211297    0.62411789865444
O          -0.17808047935842   -0.32962181416017    1.56608324658924
O          -2.00009321259819   -1.02886247885459    0.14769459098013
O          -1.76080281605057   -1.96372584449744    2.38775883114245
H          -2.08772159081115   -2.81195142906114    2.10629654529332
O          -0.35610468579491    2.27134787696740   -1.36450344705886
H          -0.95297883858449    2.25401016824717   -0.58348551607854
H           0.53592567716942    2.42334092129379   -0.98766031837383
O           1.44049448465933   -1.72648266726133   -1.29584556091675
H           0.90508053143866   -2.23344784300971   -0.64978411031952
H           2.01885862246742   -1.17515049354824   -0.74294894280019
O           1.89216049041327    2.42406300312713    0.11405662465751
H           1.54162406786539    2.75575108241775    0.94342946817327
H           2.17022291589767    1.50681856292823    0.28468017944341
O           2.31623964021097   -0.20216806860003    0.80919491842492
H           1.38680697965420   -0.27655029597867    1.13677244536293
H           2.87607017664766   -0.54961623671349    1.50508250045113
O          -1.77305233155427    1.68630071937118    0.84033413490263
H          -1.14432982833241    1.04926853105134    1.22972973516201
H          -2.51598180144106    1.13983408878172    0.56875001318833
N          -0.62993365289299   -0.24251184991495   -1.97415798645789
H          -0.46534340683367    0.81446705466228   -1.81768268135467
H           0.27262854941106   -0.78954201913371   -1.85379483361034
H          -1.27487118941134   -0.57327274329879   -1.21244701881083
H          -1.03635438888202   -0.41269861039138   -2.88758974198960
