    26
        -50.47064466  Gyration_radius:  2.48583916129 Dipole_moment: 4.198
 S          -0.88383567391304   -0.73815129461023    0.47082712782324
O          -0.63667765668232   -1.05826868999421   -0.93333168999661
O           0.37929306563463   -0.57735502074871    1.19610203278934
O          -1.70009645165626    0.46012754665296    0.61361446231616
O          -1.66401870920370   -1.90707025344746    1.10945797963144
H          -1.27147012340850   -2.71550531625223    0.66730079112549
O           1.79575983797973   -2.79903307181673    1.02395282989747
H           1.34251977139601   -1.93033755198752    1.10078046394681
H           2.01563605871816   -3.06457557398497    1.91827333745122
O           1.84434789598352    1.47691505014135    0.40504337360299
H           1.47805726228391    0.65248725311045    0.79422637612198
H           1.72893421851366    1.35599003996759   -0.55291033084247
O           0.71171149970273    0.85829707612297   -2.02408340183817
H           1.06456168419039    0.53076202315108   -2.85312840711399
H           0.20551662383405    0.10083912022763   -1.62487850599951
O          -0.39113203381160   -3.64946500835456   -0.27380901937150
H          -0.40276766808574   -2.94911146544692   -0.94357632389726
H           0.49311071699592   -3.58515676153210    0.14458956260308
O          -1.42742369168268    2.49567160652144   -1.52018556259819
H          -0.66244110808662    2.03392251104782   -1.90952260035573
H          -1.97066562672448    1.79354061538698   -1.14039120764107
N          -0.40464182263221    2.68682465268248    0.89871078496568
H          -0.95500837222047    1.78996882216054    1.04374053531721
H          -0.75883003950939    3.00465007177590   -0.03686545567006
H          -0.54433254144746    3.36354526846510    1.63943957690193
H           0.61389285383328    2.37048836075679    0.78662326083102
