    26
        -50.46736885  Gyration_radius:  2.43102816982 Dipole_moment: 5.864
 S           1.11228299265675    1.27921495916134    0.16899317878168
O           0.63117135531748    0.08399549916194    0.87926574980187
O           0.17417473526815    1.60066334178164   -0.92333795962273
O           1.30531059277343    2.38036611158508    1.07379769776940
O           2.47029159745947    0.90715254318745   -0.48023774556065
H           2.23007585215619    0.36547359981800   -1.27547315430832
O          -0.89928491829213    2.09230036396177    2.46462842809728
H          -0.05272470016688    2.34737350686057    2.02417486367386
H          -0.68543612057419    1.29512259365578    2.95571386764718
O           1.25309341953144   -0.27497128059607   -2.45955214605226
H           0.77954601860031   -1.08813313509718   -2.20461002856117
H           0.66146838873083    0.45976380118861   -2.22950596741448
O          -0.05748930398397   -2.52403679740181   -1.50416613291975
H           0.09996817120108   -3.30362618318774   -2.03861229296388
H           0.59795483570897   -2.55343332489806   -0.76596130273881
O          -1.65655266128538   -1.16708504589256    0.37218018667673
H          -0.79505885489285   -0.80436392447530    0.67262527627140
H          -1.42827514161183   -1.70022241911195   -0.40188997172298
O           1.66199416348822   -2.30333688330716    0.50808444071306
H           1.57414757639341   -2.74884508266057    1.35229482163831
H           1.41720373316740   -1.36397268583408    0.67063025314887
N          -2.12583150716434    1.41700746876729    0.21970002746865
H          -1.83459002707191    1.73789686667777    1.18540974170866
H          -2.22629439783163    0.36703998660857    0.23462174462780
H          -2.94973560882748    1.89853638345656   -0.12161286508915
H          -1.25741018075125    1.60011973659167   -0.37716073106770
