    26
        -50.47334123  Gyration_radius:  2.42263175964 Dipole_moment: 3.253
 S           0.18079403358308    0.54911037292152   -1.17730265387059
O           0.50806877503597    1.43413852530654   -0.06192960252224
O           1.32570254626418   -0.30199649303977   -1.50607407085331
O          -1.00999330461330   -0.23529558516774   -0.92116579300645
O          -0.12579377573369    1.45220159711208   -2.41196220946995
H           0.72414054924882    1.91977487274820   -2.54577287727466
O          -1.37279330934009   -2.77116038053560   -0.06421945541810
H          -1.40954960967035   -1.97680417250114   -0.62791318754713
H          -1.89575298836182   -2.54542977760228    0.71271046213366
O           0.70247326946322   -0.21042664948392    2.07218820177815
H           0.79345714854720    0.52572468851756    1.43835328918199
H          -0.27403687063737   -0.30172216317905    2.17565175382689
O          -1.81162208934432    2.36022090877080    1.00198594684021
H          -2.30110334258691    2.73226298928925    0.26711113392843
H          -0.93593001645924    2.11801476392843    0.64943071070146
O          -1.92065200439520   -0.32118048422407    1.62071075547734
H          -2.17818730951069    0.59161950300818    1.81817426247663
H          -1.69973250018345   -0.28390099648900    0.67007614283454
O           2.37393142255239    2.13991515124686   -1.97215562079324
H           2.45905738998827    1.17544637278718   -1.93593095657531
H           2.13722544327838    2.40327508544314   -1.07506057013639
N           1.16945080612207   -2.12476945673219    0.37938068850559
H           0.22954558433538   -2.58388350344481    0.24267150284465
H           1.07682416122870   -1.43180450011565    1.20074930013784
H           1.91393127580524   -2.79987876114155    0.51420019528926
H           1.34054471538561   -1.51345189742365   -0.46390735848752
