    26
        -50.47003601  Gyration_radius:  2.62247910734 Dipole_moment: 3.711
 S           0.96960344167877   -1.10193562768890   -0.81367673203190
O          -0.26476263033430   -1.13578402638973   -1.59228833081748
O           1.82809659364328   -0.00275322408409   -1.23457018922852
O           0.69078867104609   -1.04578698180988    0.61710141316298
O           1.73278470188486   -2.44160129654162   -1.06313928838108
H           1.88487552739936   -2.41468061315876   -2.02770645453216
O          -2.20760391394771    0.25219272342994   -0.56366429861650
H          -2.84229950534256    0.43602930110515   -1.25757608342231
H          -1.50305479456159   -0.30905352526022   -0.97934068302085
O           1.63140663874898   -1.46035123214500   -3.51547533688815
H           0.68279493556408   -1.40737093521594   -3.33666432317802
H           2.00140660441134   -0.67980825476277   -3.07957058615418
O           1.60504536778494    2.49940395680457   -0.39577126553530
H           2.49443109653967    2.81950229163851   -0.23862376675865
H           1.70931768807562    1.59975052417503   -0.78294964456981
O          -1.77390915702440   -1.25500088212375    1.82747223324383
H          -2.25274536118657   -0.89491450307344    1.06941056324669
H          -0.87857260512201   -1.43316399142403    1.49364744071957
O          -1.36519541289409    0.83174012968455    3.45102949300773
H          -1.64245966240527    0.00897980352796    2.97939398952369
H          -0.90136518113465    0.54317480187919    4.23782436326797
N          -0.32004775834238    1.35584662221863    1.05446895441465
H          -1.15269499506679    1.26663939334482    0.44668277949648
H          -0.62854012874420    1.46261574375523    2.04456399725946
H           0.17432292808218    0.42774131785518    0.96895715683466
H           0.32837690124725    2.07858849425936    0.69046458895785
