    26
        -50.46939268  Gyration_radius:  2.45502971182 Dipole_moment: 6.441
 S          -0.51996597752729    0.44503225855726    1.10096602579585
O          -1.30757911736598    0.01290180908917   -0.04937792971050
O           0.63387475546691   -0.46471759905528    1.27597546242697
O          -0.06718695750249    1.81236692038880    0.97125594698300
O          -1.38811833842796    0.33627177661739    2.37021513763962
H          -1.97346961468786   -0.46044796452177    2.19584487231706
O          -0.24293517857505   -2.92128894352099    1.70273475355657
H           0.15184758945460   -2.03689109033545    1.53917626469344
H           0.04349214949021   -3.18488591394090    2.57887120798735
O          -0.18276158873844   -0.64115186402943   -2.42658134304883
H          -0.38599561775595    0.26679756330253   -2.72700950826865
H          -0.74950515953204   -0.72666557666192   -1.63829923381332
O          -2.64122150654780   -1.72359773900230    1.50892590749541
H          -2.52204091942820   -1.30282031183634    0.64448921870504
H          -1.92066448505142   -2.38481587085007    1.57651074224864
O          -0.71255939181531    1.95009785087379   -2.03114433562675
H          -1.07176529693587    1.56120638031034   -1.21986066773813
H           0.04176136711302    2.48173510234045   -1.75824339273471
O           1.83864556293327    2.47684004984406   -0.64239431468034
H           2.40313594470800    3.13758522532955   -0.23886533603124
H           1.11695874757954    2.29445571334657    0.01640723571805
N           1.92593522591831   -0.19491078979294   -0.96227470466955
H           1.15719227942559   -0.44071492347109   -1.67836970854742
H           1.49352749222911   -0.38452968782493   -0.00608203143254
H           2.77041368332655   -0.73766672385043   -1.10645133664227
H           2.10898435222606    0.82981436868874   -0.99641895263035
