    26
        -50.46873376  Gyration_radius:  2.55162563796 Dipole_moment: 1.254
 S          -0.61782786689640   -0.73366237684571   -1.95553795447205
O          -0.36424039383486   -0.11100290952995   -3.23263506553044
O           0.61941140247607   -1.01359196249005   -1.22106599643393
O          -1.56794555705572   -0.01614746149555   -1.13047499740167
O          -1.27592321354703   -2.14791212141254   -2.24948096352205
H          -0.76094787070895   -2.49083531905946   -2.97376443414015
O           0.47443428578984   -2.11143159001554    1.23706524999063
H          -0.39376462258730   -1.74605959118759    1.46551059327651
H           0.60853762219668   -1.86167963153003    0.30465111726235
O           2.00781574572691   -0.45554331611500    2.63191247486238
H           1.53571178197851   -1.14506218183108    2.10016881828762
H           2.22477323242275   -0.86842692048674    3.46801148707435
O          -0.47779791704992    2.32578465871444   -2.23080811990400
H          -0.39932829246436    1.51954458707809   -2.78646619786787
H          -1.35769870387003    2.26245400128018   -1.84779344238418
O          -1.77175962488067   -0.48209504048790    1.41612151742629
H          -1.71593839592688   -0.32220645641677    0.44003987778634
H          -2.70587054027264   -0.52464812672547    1.62461110821514
O           0.13130394674283    1.36767070099550    2.09436095924266
H          -0.63757256617033    0.77928317681272    1.97605720646915
H           0.83658481050218    0.79710823113695    2.47109205428370
N           1.14091834425571    1.41114663069669   -0.31843312386588
H           0.56717599247050    1.94992367010907   -1.01937788632896
H           1.07703016247850    0.40578450220213   -0.62040556675547
H           2.10731064019548    1.72080897394520   -0.31271175445657
H           0.71560758800458    1.49079589269072    0.66935302888584
