    26
        -50.47174050  Gyration_radius:  2.39545270967 Dipole_moment: 3.721
 S           0.43928574626115   -0.43394085828355   -1.47886796595087
O          -0.89894799432198   -0.06608725314947   -0.98079185415195
O           1.45001525453308    0.30684598509634   -0.71748257622163
O           0.65652183077164   -1.85772294360131   -1.42689061094895
O           0.52734303880169    0.02256605284015   -2.95599385028764
H           0.13302709898557    0.92884441419359   -2.93480688682273
O           0.63491043790342    2.69931767954260   -0.07689085642768
H           1.38184414297870    3.29931649994720   -0.05749886634981
H           1.01024710917665    1.81016259260529   -0.28969230045118
O           1.61504490142193   -0.46249509825753    1.81656816755972
H           1.33840341639067   -1.39259317933592    1.74694082868710
H           1.82595408770519   -0.19904884102506    0.89717072536634
O           0.38287963537254   -2.76993708391090    0.98522396189255
H           0.63389917621158   -3.69526477307864    0.98428042364598
H           0.48715799036917   -2.46165355075246    0.04663938843985
O          -2.10245932396503   -1.61463717745281    1.25989067693276
H          -2.15647835742547   -1.36303429760735    0.33028107899782
H          -1.31612659685323   -2.18658992980473    1.31137534200395
O          -0.75700628891291    2.22247422685590   -2.37601472456478
H          -0.28162279508315    2.64588728354467   -1.63556316207602
H          -1.33319793756833    1.57177362782513   -1.95178924830890
N          -0.74540100876067    0.63356862900218    1.53408246922291
H          -0.77380016252637    0.54100412042067    0.47751588442346
H           0.22921625024856    0.30191770353454    1.82413563042340
H          -0.93240117518498    1.58798823324167    1.82185367216168
H          -1.44830849652516   -0.06866207238663    1.84632465280003
