    26
        -50.47395397  Gyration_radius:  2.40833293998 Dipole_moment: 3.052
 S           0.89661997990804   -1.18359436844550   -0.94659139905584
O           1.40036579227398   -0.75547228713065    0.35180970648879
O          -0.56179002059449   -1.02995343567455   -1.01278345014205
O           1.55738420687127   -0.50765454795429   -2.04043253149095
O           1.19012637928223   -2.71781547629558   -1.08600492213528
H           0.59157218852255   -3.13272488593966   -0.44563115076150
O          -1.59261369817661    1.42514178562498   -1.02588344363955
H          -1.60772946372479    1.58765429614370   -0.06653415330470
H          -1.38504034747776    0.47147722350051   -1.10682957695332
O           1.49632786337798    1.86212039807078    0.93082788727170
H           0.60840754606273    1.91562510419775    1.32856653497197
H           1.66783509625088    0.90255104441379    0.85100115216451
O          -0.47266649937976   -0.95339069180233    2.20910742120035
H          -0.93690922429505   -1.75603770979367    1.94770850773155
H           0.31198884737375   -0.92127673270546    1.62145550353928
O          -1.06457988449177   -3.11154095905884    0.41105751390683
H          -1.06930026200133   -2.28380588496156   -0.12729123925467
H          -1.73913328305042   -3.68448406246736    0.04175300013138
O          -1.14794214528809    1.54432740978887    1.69717198919773
H          -0.97733026509096    0.58975076407286    1.90673217963111
H          -1.58404827966675    1.91197462527039    2.46678898731983
N           0.89552966636511    1.99681307047182   -1.60921554484880
H           1.23448261523962    1.04662838420099   -1.92202785796688
H          -0.16521563119685    1.92530458727882   -1.51868108939515
H           1.26158120747104    2.12701071787499   -0.61448858070774
H           1.19207762543744    2.73137163133187   -2.24158544391726
