    26
        -50.47128614  Gyration_radius:  2.49024576249 Dipole_moment: 4.247
 S          -0.70005300187376    0.16561637620504   -0.58830798027841
O          -0.31188297171605   -0.14135586759120    0.79970801131983
O          -0.71232333912208    1.60137502798610   -0.81361876941201
O           0.14866482544053   -0.54090969024979   -1.53190548334810
O          -2.13568840595167   -0.38090823615459   -0.79108943992937
H          -2.61269857271630   -0.13831121233889    0.05419801446696
O           1.69870526641709    1.96457474665816    0.26121903694898
H           1.46057996931643    1.91942282241514    1.18922734374319
H           0.84951671365797    1.96285461163357   -0.22137078056409
O           0.38614574732896   -3.13669028907581   -1.16421280829033
H           0.14103148866026   -2.21021517496323   -1.39096084470939
H           0.66593516919159   -3.54489449256750   -1.98523916010528
O          -2.86270418396935    0.40710262428749    1.54352741049659
H          -1.94838282813152    0.18027190563299    1.76568938763584
H          -2.86342744211580    1.38124932287989    1.43012604459559
O           2.77570671520178   -0.14251657465792   -1.00932179044182
H           1.95540267131588   -0.24864057392229   -1.52470137249388
H           2.65839797893040    0.72709999488198   -0.57588186119299
O          -2.35842286210696    2.92683081002829    0.77825515437500
H          -1.69908985306616    2.53246431062818    0.16667901012218
H          -2.93791736301549    3.46177584076827    0.23338476347400
N           1.70557306157827   -1.77507135730370    0.70971029245724
H           2.14261893055982   -2.09744301852075    1.56523824945154
H           1.33802066871926   -2.55440138431948    0.12207562048622
H           0.86844984856808   -1.13975833453069    0.88904028613569
H           2.34784174888416   -1.17952219786072    0.08853163507727
