    26
        -50.45882049  Gyration_radius:  2.54897244695 Dipole_moment: 5.485
 S           0.74799752927916   -0.71266517368735   -0.24910315172189
O           1.41847450948719   -1.58738293612013    0.67717910190181
O          -0.44779079639727   -1.31734741434591   -0.83937040659640
O           0.26367285571997    0.56039687989772    0.52378498989494
O           1.62771013001619   -0.17412418417511   -1.28853079352262
O          -1.12798143660350   -2.64729075918266    1.35585647376681
H          -0.98960974583469   -2.25827218905002    0.47079143301067
H          -0.28763181761118   -3.05880939012700    1.57711776631585
O          -1.61922810643514   -0.08104255530414   -2.76797375556776
H          -1.26551613353627   -0.58736653721333   -1.98536029241772
H          -1.76371542101684   -0.73249261057002   -3.45668006941981
O           1.63655275855986   -1.11558978022367    3.27930523243265
H           1.65152944574787   -1.37048623930067    2.33230633660372
H           2.45421792626378   -0.64369669333953    3.44101891122185
O           0.44104038242260    1.40649618155988   -2.74539371364599
H           1.03352585800623    0.72484094001841   -2.15852712853390
H          -0.41424299085524    0.87476943399258   -2.90888793405948
H           0.16931000749758    2.15858694366686   -2.04845436952878
O          -0.84340553452866   -0.31959276196323    2.59716564247970
H          -0.22483414228779    0.23626105101114    1.37783330210087
H          -1.15800348132793   -1.19510600700059    2.26629302111069
H          -0.04592320045369   -0.52814552242510    3.12295239008991
N          -0.24802604833881    2.99551897113720   -0.87972869652417
H          -0.10907859123252    2.29584812500290   -0.14957530671697
H          -1.22109852948859    3.27299138520133   -0.87599559330038
H           0.32205459295560    3.80370084253344   -0.66802337937450
