    26
        -50.46148209  Gyration_radius:  2.51949906129 Dipole_moment: 6.057
 S          -1.56014671828229    0.71898456203636    1.26574839566955
O          -2.14092539616872   -0.44909344118876    0.62118966561921
O          -0.63862722839237    0.31692555632543    2.32613233346304
O          -0.97668975390748    1.65746836287017    0.33839164582102
O          -2.75485646259519    1.47291467159002    1.97531700685341
H          -3.14038769461570    0.77490590399213    2.49345938171490
O          -1.70197853674901    1.34412793126990   -2.21556475027548
H          -1.54721546247492    1.43411663532562   -1.25345997745995
H          -1.63542224394131    2.23106701600076   -2.57406390280884
O           3.14544140133900   -0.06530672672673    0.49212669322868
H           2.60290231886893    0.68808559201624    0.10437716509188
H           3.61485361122123   -0.44479712397762   -0.25324091119733
O           0.51582068688083   -0.21471868928889   -2.38783994941734
H           0.23679193081324   -0.95462144021036   -1.82911580810976
H          -0.30160334584337    0.30035515622465   -2.53621813300067
O          -0.53604755523565   -2.07211013181338   -0.55353828550865
H          -1.05326256606350   -2.79243921188013   -0.91734652074006
H          -1.19787235603232   -1.43248489202958   -0.16450131991620
O           1.55469555104104    1.58456573426780   -0.68423114171227
H           0.73032994620373    1.77724653028661   -0.20850068511650
H           1.28007318580809    0.98953286525384   -1.41894796374797
N           1.11222310915199   -1.39443828067399    1.48266971980131
H           1.36068636788587   -2.06540377531961    2.20160322937576
H           0.43816183465341   -0.66265676920026    1.88373263640235
H           1.98203462402434   -0.89150636869967    1.11482442272517
H           0.61102074240213   -1.85071963646986    0.69699705324596
