    26
        -50.46276857  Gyration_radius:  2.5214314103 Dipole_moment: 7.620
 S           0.18300149499375    0.78849131032057   -0.02596191207783
O           0.62599546705345    0.37727877250953    1.29607359505054
O          -0.54494019694989   -0.28156035331893   -0.71569096757490
O          -0.74985098943125    1.99936624787461    0.10609930936122
O           1.30306314570098    1.23613163085552   -0.86326376344059
O          -0.65390910346175    0.82182411589704    3.59313507060131
H          -0.12103185430552    0.54666139210700    2.81968582573523
H          -0.17112909051735    1.53954033175108    4.00625796960218
O          -2.78721422882554   -0.98124486361783    0.50024097757535
H          -1.93027296669886   -0.79733338288182    0.05786090182734
H          -3.43686184716662   -1.07642923959509   -0.19797812161820
O           2.59905824326979   -1.06480131046514    0.28088416687954
H           1.89004296557511   -0.62439707700226    0.79193128567312
H           3.15131116924913   -0.34591576639195   -0.03346283495835
O          -2.53866666560085    1.36787493232718    1.76804545295707
H          -2.79895825286879    0.48270405456817    1.43509261135350
H          -2.01112542639017    1.19511675263999    2.57783510706795
H          -1.50478727555801    1.78776947748898    0.77957674043958
O           1.02800546033057   -2.25673701561683   -1.51717765617642
H           1.25430865826485   -1.14391059942495   -2.50803598467213
H           1.73149245330013   -2.10080329728267   -0.85045534427623
H           0.25342245566174   -1.79953336546004   -1.13050518284787
N           1.30837940827804   -0.15901237238058   -2.98171803887327
H           1.31567273974136    0.52028676974965   -2.11280955212707
H           0.46665974686143    0.01004257575004   -3.52254476197913
H           2.13833449948862   -0.04140973040349   -3.55311490349719
