    26
        -50.46276874  Gyration_radius:  2.52134804588 Dipole_moment: 7.616
 S           0.47938417135017    0.42723561056971   -0.49522197488007
O           0.11063753464045    1.58705618297221   -1.42939222734223
O          -0.64874471700464   -0.50887148988411   -0.45456818117474
O           1.63813380668437   -0.23023483651207   -1.11257268230189
O           0.79425417749536    0.95358013093358    0.82261773362885
O           1.97776234319988   -1.30332389808490    1.53617027714221
H           2.75158223148699   -1.24093445244601    0.97233742530605
H           1.52980891993110   -0.43914351533761    1.43476251862619
O          -2.91784223653575    0.60746664363400    0.32012677636236
H          -3.58745064604303    0.26222902153106   -0.27236704673782
H          -2.08264047289904    0.14310139642630    0.09484829572860
O          -0.08575040558824    3.25089400942240    1.85168288469392
H           0.25449989584444    2.36492292385076    1.61259485066325
H           0.66236357263696    3.84729614084931    1.79343927637039
O          -1.69045019417894    2.91713366025563   -0.26835640925614
H          -2.29799094731061    2.20108605334926    0.01515800686212
H          -1.23277834293310    3.20752733373337    0.55030819278814
H          -0.62897163449997    2.16407419896206   -0.99575099478079
O          -0.03177803195092   -2.82858028297748    0.66580667372456
H          -0.53982669817628   -2.02021928811141    0.44896541699198
H           0.56286427491392   -2.88729053153553   -0.71781350484300
H           0.71085074781497   -2.48356204741404    1.20727445346800
N           0.97676450402784   -2.60947429505654   -1.69189671718655
H           1.29935754393557   -1.56837879258990   -1.52275669817183
H           0.24280586650996   -2.61476089643965   -2.39245599989275
H           1.75315472665661   -3.19882902010270   -1.97294036578887
