    26
        -50.47688194  Gyration_radius:  2.44028374425 Dipole_moment: 2.692
 S           0.71790024156085    0.70653313468978   -1.20312646943733
O           0.93278523605389   -0.73994730789145   -1.05449572460763
O          -0.59209686965896    0.97075738829927   -1.77184154429551
O           0.92968475546396    1.39820606640160    0.05666279964158
O           1.80843965843183    1.23468281627580   -2.18503917656380
H           1.60381040145313    0.75848761615452   -3.01309724216272
O           0.53807091575720   -0.45782836996386   -3.76558573495296
H          -0.22902527445381    0.03448567463458   -3.43827709293094
H           0.73599689931293   -1.09910449880397   -3.07198852475533
O          -0.00822170679803   -0.82730324593847    2.81520206350634
H           0.92764604685115   -0.72797709479771    2.52884379947432
H          -0.38166697849385    0.06951233209060    2.77558102737487
O           2.27633773228162   -0.41970505175250    1.47640130467022
H           1.92228900445612    0.36314403517685    1.01284994877323
H           2.40174600068636   -1.07093662868590    0.78151981304265
O          -2.51054126900285    0.41660203034493   -0.01408720870068
H          -2.24867493026295    0.97582308836288    0.73533689815002
H          -1.95018956208232    0.71393759182343   -0.76196795033189
O          -0.92352541154408    1.63067681235110    1.90620564387863
H          -0.22364765783010    1.60456705519923    1.21261992503402
H          -0.87347552376069    2.50320427998300    2.29963493149243
N          -0.98128005527676   -1.64300588490717    0.53321414118244
H          -1.75289721426178   -0.93713026027712    0.32256941421558
H          -0.19416251706268   -1.41120575526095   -0.12667270707455
H          -0.62980078825846   -1.44651707900441    1.52975534599166
H          -1.29550111358359   -2.59995876428472    0.41978231945472
