    26
        -50.47111535  Gyration_radius:  2.47071589915 Dipole_moment: 3.113
 S          -0.01886583676031    1.31178163224431   -0.81429565841870
O          -0.82786472295739    1.39077671962833    0.39765151194503
O           1.30081780296437    0.74303071875659   -0.49098278084813
O          -0.68253198251959    0.58820558694932   -1.86904788435613
O           0.22243957579172    2.76364474866614   -1.32912435463528
H           0.82087322198571    3.14929742221405   -0.66031146769664
O          -0.57048366295925    0.26387720196556    2.77326142855078
H          -1.45665830995294   -0.07040149584664    2.93033500742894
H          -0.65320302067313    0.86087346827895    1.99785485882117
O           2.16284511541170    3.02731468558599    0.45401483958287
H           3.01546311521819    3.27197310965011    0.08756896385322
H           2.02994453464595    2.07882520164077    0.25004336266853
O           0.17138027082793   -1.86052995525731   -2.37396032075726
H          -0.06853225966221   -0.92117102556812   -2.21352607808179
H          -0.09489775433804   -2.04901488394949   -3.27502196105992
O          -0.81076305874443   -2.70023702660035   -0.03075692686862
H          -0.46865484067026   -2.60187254842026   -0.94385385267897
H          -1.55807098132041   -2.06304247210858    0.02662656514598
O          -2.51097442281984   -0.62121525031345   -0.04890157631536
H          -2.70732547590044   -0.50766516762444   -0.98219325282626
H          -1.95922610429114    0.15683417845026    0.16999694178613
N           0.95741012989342   -1.25661325109936    1.20368150478109
H           1.18870188188479   -0.51641320082057    0.49008206792209
H           0.27362958357098   -1.95482315198606    0.73582845422001
H           1.79831132109656   -1.71640434549223    1.53393333296117
H           0.44623586028008   -0.76703087895214    1.98109726488875
