    26
        -50.45198909  Gyration_radius:  2.60473517027 Dipole_moment: 2.759
 S          -0.31290694309343    0.09689460530496   -0.63086715663830
O          -0.38757533015873    1.52398824518139   -0.41281651895931
O           0.62987100183269   -0.56084289380250    0.25028548618440
O          -1.70499782892445   -0.51489793196938   -0.43436691195825
O           0.00979342240037   -0.22024734520949   -2.06549428148941
O           1.43277895632934    3.00002630595328   -1.67069598423257
H           0.95052635555458    3.62544718565153   -2.21456584609812
H           0.76767760798801    2.55430824764960   -1.10576548908052
O          -0.63830968733296   -0.44129318912016    2.67485960740553
H           0.00705406708312   -0.46270637584232    1.95014410236437
H          -1.10797004731671   -1.30003934319127    2.60778941107369
O           3.18981675448025   -0.44968009955692   -0.47063070295527
H           2.29618429403332   -0.48771420809223   -0.07172509395727
H           3.52854625968158   -1.34668767919175   -0.46262405313097
O           2.21655738843301    0.68638345041267   -2.63039297971137
H           2.08502922614283    1.63628985011101   -2.37451403640790
H           2.76700151643224    0.28832001187686   -1.90760818734913
H           1.01751398304084    0.16846699693266   -2.39017267062527
O          -2.36758197906574    1.02774140325364    1.40998371671512
H          -2.13386249921775    0.08702138810161    0.30267783371240
H          -1.78872151243945    0.56709815143318    2.08546297494436
H          -1.83536038643688    1.75347595494919    1.06007922487010
N          -2.01915975325924   -2.64687862326250    1.79752096808847
H          -2.98920108546792   -2.73596934241121    2.07289217439198
H          -1.61404087158573   -3.57417021042657    1.77683476884256
H          -1.99866290913119   -2.27433453473316    0.85370966399962
