    26
        -50.46977829  Gyration_radius:  2.43914650643 Dipole_moment: 5.763
 S          -1.30885981039796   -0.90257336752821   -0.98843900753034
O          -1.26941914512458   -0.38748053202512   -2.32826252699901
O          -0.06312164523905   -1.52528712164376   -0.55017107422162
O          -1.76543950899028    0.06955547321986    0.00144017938715
O          -2.37918741717986   -2.07064302879234   -0.99328425516489
H          -2.91301932251564   -1.80664445020523   -1.73396639780185
O           2.08560030620231   -0.04472577960165   -0.87485577395862
H           2.77002584710823   -0.58241186682842   -1.27544784886842
H           1.29295006578020   -0.62067059525140   -0.78097080890438
O           1.44243093681857    1.62360550856656    1.24194153459198
H           1.89205495566488    1.11475123116593    0.54883032518352
H           0.76490013461498    2.16408800155921    0.75286712746466
O           0.50458100367254    1.66521220701958   -2.47151894490028
H          -0.17437356085202    0.98103185415287   -2.60476509181022
H           1.25208086255047    1.20720413502995   -2.06164074956005
O           0.29377423942657   -2.55588118834683    1.84696277089363
H           1.12978014736089   -3.02447069003012    1.84258639353691
H           0.10161190898882   -2.32322525373171    0.91082294122141
O          -0.55896349481801    2.55904534746775   -0.18101082850400
H          -0.18761393191672    2.49391691357531   -1.08733519745722
H          -1.17601987672014    1.81374857652514   -0.12213129397497
N          -0.35041147881672    0.02712984273694    2.21505501784499
H           0.46862619304636    0.67996656499809    1.92680180794313
H          -1.01283192127613    0.03582784561729    1.39093846716260
H          -0.02434306498879   -0.95453561374620    2.32433390178221
H          -0.81481244239908    0.36346596609871    3.05121932264325
