    26
        -50.47132743  Gyration_radius:  2.39796954055 Dipole_moment: 2.044
 S          -0.51879329933565   -1.62122153128901   -0.22473342106751
O          -0.57740248754280   -2.02831536341368   -1.60958799199364
O           0.82499598863838   -1.25614407402317    0.19507541684607
O          -1.48606987188236   -0.59403748138226    0.12329680968382
O          -0.92038137432835   -2.92085189276853    0.60783969396236
H          -0.78724617319045   -3.60142563502982   -0.04328067999820
O          -1.26832764453445    0.29739529245169   -2.57821949085902
H          -0.96973908234600   -0.61927517524803   -2.38125895497945
H          -2.02913359173353    0.42072243656978   -2.00283902265402
O           1.12479946821311    0.56164862746519    2.15064675000027
H           1.11331279311648   -0.14386140894287    1.47366972909024
H           0.53658639816519    0.21073459988211    2.83414098051555
O          -1.01726015181685   -1.07356852943384    2.75346008508948
H          -0.97866392473571   -2.02966314186216    2.80921736379994
H          -1.31658864431328   -0.88259670090033    1.85035110157220
O          -0.68012077034122    1.92215504467296    0.76268284012224
H           0.01948673550392    1.61998433519035    1.39241551281322
H          -1.19053043118952    1.10995264460252    0.59068128078650
O           2.59225449545406    0.47494656211254   -0.73928698291311
H           2.92585888391631    0.78267305812011    0.10854432718551
H           2.03482972596350   -0.30172839903120   -0.52071782103312
N           0.52751446300280    1.95945322146901   -1.53261263492705
H           1.42700579169117    1.44516929555983   -1.34042700988239
H           0.69226505333561    2.83673883364756   -2.01281454583882
H          -0.11673074695359    1.33291743450379   -2.08764621993619
H           0.03807837721467    2.09819796711186   -0.57859709538352
