    26
        -50.46930059  Gyration_radius:  2.43446604653 Dipole_moment: 3.386
 S          -0.20875085491888    1.10735463112330   -0.55937829657559
O          -0.73293670771795    0.52560055516148    0.69197753294428
O           1.10546615889435    0.53747634229355   -0.85392750997528
O          -1.14518360763946    0.90013277672863   -1.64267839081560
O          -0.04610895023970    2.62321310209579   -0.33565558666447
H           0.71559316720436    2.72206380289564    0.30930343994661
O           1.85142516540377   -1.39899317710563    0.79457717797132
H           1.62000676598839   -0.66280722614041    0.18703552053092
H           2.73695919280447   -1.66741723447274    0.54563498935578
O           1.80362199052760    2.77473671340376    1.46039471850042
H           1.65918725508949    1.92756999501261    1.96311992168122
H           1.60115348846364    3.48587105761560    2.07204828684150
O           1.09337791770378    0.53020238753136    2.62449569590968
H           0.27950774002694    0.55170469763469    2.08394498380578
H           1.57575276993089   -0.23255645087554    2.26730259595627
O          -3.15578134708710   -0.77629959103563   -1.26135426634293
H          -3.84670243150592   -0.29728655517939   -0.80154834924928
H          -2.47538224228009   -0.10013879116961   -1.49204730677894
O           0.33052479278272   -1.45353055698411   -2.36247258701701
H           0.79324133706778   -0.69720095772551   -1.93604452799011
H          -0.33205883346201   -1.03938039164408   -2.92333291849108
N          -1.04456052279091   -1.91378050613829   -0.14687895438633
H          -0.84177817088683   -0.99566854980365    0.35328860362880
H          -0.88214422703539   -2.71511329721274    0.45335952221482
H          -2.02850625445370   -1.81031650909492   -0.48128305192185
H          -0.42592357182798   -1.92543627693886   -1.00988126303030
