    26
        -50.46936654  Gyration_radius:  2.58328705853 Dipole_moment: 2.026
 S          -0.18717770239258   -1.56503913378047    0.20623064633451
O          -0.06422978576874   -1.52837509148035   -1.25325978807746
O           1.05527642599775   -1.15163622834108    0.84441225409073
O          -1.31585515295292   -0.77319790222759    0.66229522403029
O          -0.47810094548422   -3.04027230320196    0.61894954527156
H           0.22137653188824   -3.53172720215643    0.14652316900125
O          -2.37818698593416    1.10576943624532   -0.87387385624664
H          -3.10882286450936    0.76884692172136   -1.39407598630874
H          -2.05022214569553    0.34704479206083   -0.34029601608350
O           1.27345723866024   -3.77218400323543   -1.22581310648980
H           0.92495255163945   -2.88553512963576   -1.45512042033490
H           0.96257891374577   -4.37238049606666   -1.90748401537343
O           0.09528587229749    1.01951239815169   -2.00205167108558
H          -0.79391965588045    1.30892614234928   -1.72357643555118
H           0.06276821870125    0.04365617477942   -1.91384650708591
O          -1.50701235741349    1.63607607605083    1.87982770589804
H          -2.02671667531661    1.98597062519871    1.14812337929082
H          -1.38959312331966    0.69250718823226    1.66363371179094
O           0.86640623043919    2.77071404046541    1.98180586850462
H           1.20441836478578    2.58559861555297    2.85946274577450
H          -0.06475003605166    2.42722081005962    1.97681526611726
N           1.76345219680016    1.20376982631863    0.01840161131875
H           1.14139186941463    1.29695964799454   -0.84198276840636
H           2.74180960065961    1.29975278484655   -0.22996073266056
H           1.48669970627221    1.90172572833185    0.75692234315969
H           1.56471369941512    0.22629626176577    0.39793784312873
