    26
        -50.46276875  Gyration_radius:  2.52143934008 Dipole_moment: 7.618
 S           0.66458636172344   -0.15315230818934    0.43873570261121
O           0.91141929531207    0.09503958656821    1.93245539637356
O           0.06179629492875   -1.46419308810869    0.26311242067395
O          -0.19837094267122    0.91758941595193   -0.07054487298177
O           1.98205443589919   -0.06644525480432   -0.20375106836559
O          -1.36963400789388   -2.79539782183020    2.07700396854235
H          -0.77658031243105   -3.47230479440077    2.40708379755243
H          -0.91587174694728   -2.38695018701330    1.31206592854858
O           0.63457809615888   -1.47738392073658   -2.32024389758868
H           1.58722177627506   -1.56990474416069   -2.25312770258919
H           0.31184406781530   -1.58875747488889   -1.40302343337615
O          -2.49778678296798    1.12230107875166    1.21990921461626
H          -1.68658386917634    1.03389090015704    0.67387118492606
H          -2.63142155431404    2.06168532429210    1.35519234972757
O          -0.31768034957036    0.98399123118155   -2.71621426985175
H           1.01407833060709    1.59603328167450   -2.36503097063589
H          -0.09363339595230    0.03756426710182   -2.84969976449169
H          -0.61334363255541    1.01038154370493   -1.78326903164420
O          -1.27565354778583   -0.32688686873765    3.11557746656954
H           0.03894430608459   -0.06516977229408    2.46271520689399
H          -1.89468168135820    0.18281832856836    2.55062254445872
H          -1.44520745394409   -1.26963136732033    2.89993576691019
N           1.93408263456056    1.87088483709054   -1.84031024594333
H           2.74025918240875    1.91431377508755   -2.45461196539886
H           2.03355910372464    1.06046615556802   -1.09871324181679
H           1.80202539207074    2.74921788678791   -1.34974048371822
