    26
        -50.46833927  Gyration_radius:  2.55847201741 Dipole_moment: 6.116
 S          -0.96610953682148   -0.55235616545354    1.11572749733183
O          -0.71104617767025   -1.78714262386425    1.81210091235740
O           0.10494258682830    0.42918838684220    1.33410768783443
O          -1.22294138170191   -0.71947442852698   -0.31228879540960
O          -2.27628098048494    0.10556896982007    1.67738828788696
H          -2.09875377329404    0.15479315594662    2.63672234381810
O           1.13409422832719    0.10184553285287   -3.33414915535538
H           1.02080575215473   -0.29563331434042   -4.19865944666589
H           1.17668006579263   -0.66165092930503   -2.69010691440619
O           0.90888090356180   -1.83312226860477   -1.60293373199008
H           1.51748130724320   -1.80740716582699   -0.83800328697256
H           0.03961109993911   -1.63483000976782   -1.21538667953043
O           1.92083488951248   -1.51641008315579    0.88406816718201
H           1.38940326204247   -2.19009407730514    1.32209101604090
H           1.44902081833634   -0.68887438442175    1.07423343733142
O          -0.92692121298674   -0.18704504643377    3.93249636464958
H          -0.18645726221276    0.38031517308382    3.69869409304739
H          -0.76961249948541   -1.02329350412955    3.46069656589386
O           0.44508383843573    2.66296222228505    0.03082995871624
H           1.39655437948574    2.78171312252226   -0.00270256940489
H           0.29364876716513    1.88254967111314    0.61952228913644
N          -0.74417993314118    1.29791329843585   -1.90419782133920
H          -0.27838820007088    1.99231581968661   -1.26122717518168
H          -1.03955634034844    0.48942121267198   -1.27863108951331
H          -1.54611423692408    1.70269507148918   -2.37398425535552
H          -0.03068033368853    0.91605233438403   -2.58640768010216
