    26
        -50.47131912  Gyration_radius:  2.44838667576 Dipole_moment: 2.847
 S           0.20725672820538   -1.45810739951325   -0.99355189954379
O           0.03521910414333   -1.54058914830080   -2.42253168120838
O           1.11830935880757   -0.41182707010691   -0.56639471605991
O          -1.05074695354896   -1.38685978999620   -0.25932940857899
O           0.89163822634716   -2.83552761129619   -0.56965123037535
H           0.87775620010485   -3.32921619564024   -1.38297336416697
O          -1.30584468183437    0.68970762583879   -2.95566183287151
H          -1.39450797472838    0.75669726565237   -3.90819598706968
H          -0.86446392735347   -0.16919858795743   -2.78742109638258
O           0.21556515771137   -1.84318129969643    2.05829343363514
H           1.05487342478394   -2.21844035129053    1.78612809967388
H          -0.31925085678656   -1.78689997055426    1.24793053064687
O           0.14229242468391    2.01884352194458   -1.12297637486774
H          -0.40113357527073    1.81324371425544   -1.90662058355304
H           0.68114266940694    1.21249563037412   -1.00395755344442
O           0.03150517413026    0.73161642979118    2.87191339702601
H           0.08021805011101   -0.24455309834176    2.83758270997484
H           0.89289746334247    1.02527149136672    2.50561609261593
O           2.16034845363307    1.24389083667580    1.31865487863596
H           2.12442708455002    2.05850081770061    0.81223535207599
H           1.92758225571749    0.53606893140293    0.69334309203563
N          -1.44965861874567    1.04527317245775    0.75502697327710
H          -0.89466477442827    1.63062656037687    0.06893736207836
H          -2.39557819776577    1.39079774307143    0.86967792634346
H          -1.44981986857352    0.07576958502309    0.35851644910235
H          -0.91536232665118    0.99559721676689    1.69540942100603
