    26
        -50.46992758  Gyration_radius:  2.54150513514 Dipole_moment: 3.589
 S          -0.29800644114119   -0.58050500483206   -1.40547267144064
O           0.70145584653356   -1.55427713685719   -1.81565219637582
O          -0.77948665895447   -0.88401368732894   -0.04932322059963
O           0.16292425667639    0.78876798724797   -1.50062416381998
O          -1.53017145836379   -0.70925020437435   -2.35722470881074
H          -1.76893511098789   -1.65261048485628   -2.26776476047182
O           2.84128260967228   -1.06630588732976   -0.33747666366709
H           3.48908182431414   -1.74135019844382   -0.54698017768865
H           2.09090783743923   -1.21589809157671   -0.95343858820790
O          -2.31578420199973    0.83360194042100    1.23810982011138
H          -1.77863898716872    0.22518046612687    0.68286541444954
H          -2.47600784755373    0.36436376277612    2.05905404838135
O           1.19893222533944   -0.53154443976034    1.72326867774067
H           1.94745351794105   -0.84923868624184    1.18275384237973
H           0.40830241425179   -0.78467407787455    1.20565438187793
O          -1.07224084673048    3.16815471036163    1.42506461440372
H          -1.60425480975437    2.33516522008240    1.42213990471667
H          -1.45408452927382    3.71818816474577    0.73874717532007
O          -1.37235934819231   -3.20121176693061   -1.48623773881635
H          -1.49334027503011   -2.91171391016474   -0.57568856806931
H          -0.44932870288008   -2.98111102989940   -1.69562917003582
N           1.13244739894811    1.87259979963113    0.67358785677599
H           0.37025317945280    2.49306712298334    1.04893683257329
H           2.01738425219044    2.35861663919064    0.58352649658533
H           1.22835720917270    0.99647651753162    1.27454069992655
H           0.80385665610843    1.50952225539129   -0.26673712724965
