    26
        -50.47771707  Gyration_radius:  2.36989306978 Dipole_moment: 4.708
 S          -0.58989434391047   -0.03420519000623   -1.34942750240362
O          -1.35375267680035    0.58227352528593   -0.26221954243776
O           0.85013528434114    0.15233450735969   -1.12624609393909
O          -0.90971822947068   -1.43459513513286   -1.51173550977594
O          -0.94872695964959    0.70800933693369   -2.66478492461148
H          -0.84957334058786    1.65597489583721   -2.41581936076144
O          -0.69122796940586    2.95449539791323   -1.33070765069890
H          -1.19589069120746    2.40381911349582   -0.71316105646290
H           0.18752385571804    3.04383593625633   -0.92603022584231
O           0.19506158800361    0.91050670115764    1.85268536217557
H           0.88515455639331    1.49277267745027    1.50377129465812
H          -0.46635599630956    0.86018396484845    1.12699313190652
O           1.70580890873834    2.34459033160950   -0.03190124957862
H           2.60434066840165    2.53345264576368   -0.30528813066159
H           1.45032385064895    1.50104788026420   -0.48100509864797
O          -2.08038245993288   -1.89408547616830    0.79112349773045
H          -1.74684071293000   -1.88113398513413   -0.13559265510088
H          -2.46478288406183   -1.01750151461942    0.89825409555518
O           1.53199773149645   -2.27075964701453   -0.41979984912178
H           1.45875111842296   -1.34533552879429   -0.74677336285207
H           0.87071882836352   -2.73781363856368   -0.94204929712943
N           0.32703012894562   -1.72151489853067    1.86794659723936
H          -0.68160883320037   -1.89394260161304    1.57765893471152
H           0.92389857272194   -2.02340703944368    1.04263200951165
H           0.41887858202367   -0.67039653714558    1.98380375034768
H           0.56913140324056   -2.21860574203105    2.71767280620908
