    26
        -50.46519562  Gyration_radius:  2.68341195812 Dipole_moment: 2.402
 S          -1.85512311711120    0.97645561524293    1.15833450138831
O          -0.45631959145455    1.31742581214319    0.87976252005755
O          -2.76778464398085    1.67470581243768    0.28269235909182
O          -2.04944515217053   -0.45920776331503    1.18835077073837
O          -2.14442901352571    1.49438745790439    2.62984853101956
H          -2.23925488004862    2.43508891970257    2.51419000307300
O          -0.09415152033805   -2.14225114245373    0.89142140265078
H          -0.85514046688518   -1.53789231257124    1.09098744348689
H          -0.32873078706533   -2.99651813004593    1.25545023775514
O           2.17793423779217    0.22047499553159   -2.56598047402530
H           2.74339840674105    0.20401276679430   -1.75687664547317
H           2.28321773031652    1.09555490792687   -2.94248001355125
O          -2.66494908681368   -0.11197382701029   -1.64650898168597
H          -2.79475151116544    0.65560538117443   -1.04491098652318
H          -3.09707283519255   -0.84223473534924   -1.19685817345467
O           3.47405363962746    0.24513865074707   -0.25310309309834
H           2.82904823268542    0.16505763002125    0.49227358836356
H           4.20749426615014   -0.32877894227255   -0.02982196804072
O           1.68092702463915   -0.13687205648859    1.67696658266235
H           1.23379166319494   -0.98476690368793    1.53256860968919
H           0.98518824816617    0.53277881109826    1.55240452947113
N          -0.04281521160852   -0.30301637960953   -1.16657095287551
H           0.73743927268438   -0.11217445822852   -1.84185374007837
H          -0.99871667379746   -0.29842454902379   -1.59586846918619
H           0.10958327531091   -1.19900561074373   -0.68498770597325
H          -0.07339150618028    0.43643004005469   -0.41942985547566
