    26
        -50.46862861  Gyration_radius:  2.47493038382 Dipole_moment: 4.027
 S          -0.88939402400573   -1.95061152161388   -0.67008148472635
O          -1.57864062699747   -0.65252317477347   -0.76730023379336
O          -0.04224658229614   -2.19071994839611   -1.81999835482550
O          -0.24760619069744   -2.10105253701123    0.60719173222240
O          -2.03861219635407   -3.04358126109288   -0.75442481504530
H          -2.10664568774938   -3.16588907660371   -1.69546648437805
O           1.93317644754815   -0.56781137933073   -1.37990000511168
H           1.21783135643223   -1.23474820451454   -1.52559856599517
H           2.74905800249537   -0.98935219391337   -1.65551532521506
O           2.05644990830589    0.83024816929384    1.01303301384751
H           1.54218229378068    1.61806946860316    0.79087025987291
H           2.07088690108651    0.28840618667781    0.20548921550583
O          -0.07907320314911    1.22632174205178   -1.96008216283203
H           0.76633144907632    0.75337718508489   -1.99797641141002
H          -0.72323637588268    0.54840700129531   -1.67415659652325
O           0.44674669320389   -0.53000603050999    2.64405433449517
H           0.29705575593608   -1.31726758847057    2.08769203358952
H           1.20855070206067   -0.07164591548214    2.21828667965558
O           0.09659693227394    2.72246017922885    0.15576706297221
H           0.05600265934041    3.65145906460300   -0.07165015125429
H           0.03812936230431    2.21519102573593   -0.70784699249039
N          -1.38038256753735    0.80966932316988    1.40470214110051
H          -0.92697996266524    1.67934264357111    1.06492222188401
H          -1.54210041929584    0.18760056582432    0.56178102402916
H          -0.67162677022717    0.27922292198969    2.04411565625784
H          -2.25245384699087    1.00543333457934    1.88209219816588
