    26
        -50.46728127  Gyration_radius:  2.43636977339 Dipole_moment: 3.876
 S          -0.00539453399297   -0.16335821252993   -1.81360978073071
O          -1.32205919028276   -0.77766620527313   -1.84669261858878
O          -0.10480514153468    1.27964345186100   -1.60054534742127
O           0.90435379529316   -0.80631924976964   -0.90126081764661
O           0.60973224978366   -0.34849621273897   -3.26534918646565
H          -0.06700495354234   -0.00739690498650   -3.84230572613179
O           0.69030657113246    1.85014578611238    1.92701940556750
H          -0.21373053679028    1.78431413096926    1.60378994967880
H           1.20541368385418    2.23550657650576    1.18953898755012
O           1.62608374290619   -0.63875677692366    1.70981128882562
H           1.67972513107124   -0.68455078224803    0.73892881890066
H           1.46634713022418    0.31285605539661    1.91309927138306
O           1.83964103919474    2.62465345295182   -0.39291193104538
H           1.79470648720503    3.51247168729528   -0.75132932562917
H           1.19684807190855    2.08980761114217   -0.90310142185356
O          -0.82037228745918   -2.93126746917740   -0.45584077415761
H          -1.13676932059367   -2.21218778948936   -1.05176427159943
H           0.12823597392713   -2.95830012471240   -0.61813801236287
O          -1.71289067403981    0.88869795785601    0.42240142677056
H          -1.09286203609259    1.07539939209643   -0.32136228813431
H          -2.54297654981720    0.68043629146061   -0.01361833233458
N          -0.84870808411171   -1.37426753094343    1.68372696203660
H          -1.26680718375066   -0.49972767137832    1.29904916520343
H          -1.30546589039815   -1.66528830399918    2.54023498333096
H          -0.90912750856342   -2.11077078459889    0.92224995384100
H           0.20758003446864   -1.15557835487625    1.82797962100702
