    26
        -50.46574681  Gyration_radius:  2.6560376315 Dipole_moment: 3.466
 S           1.07582151907997    1.59034140465367    0.87940155412919
O          -0.34293830302591    1.54839428278230    0.51031357432873
O           1.30691708378221    0.87741605842777    2.12085688693741
O           1.94775246729400    1.18522312285613   -0.19776908181877
O           1.40166665122552    3.11792893246255    1.15537003211415
H           0.84185391600228    3.36204072870980    1.88690821126359
O          -1.16206633182908   -0.33546537447076   -3.30959242934582
H          -0.64478489854985    0.39016423756996   -2.88228406050725
H          -1.78277677687389    0.10223817560438   -3.89381633467951
O          -0.36849503045254   -0.90675010327227    3.18561163309156
H           0.27100120378302   -0.23868557004048    2.85798344979242
H          -0.50640144017781   -0.71420168188904    4.11319564808389
O          -2.07718129386258   -2.08615353172667   -1.55145145572245
H          -1.79305979477388   -1.42297008727896   -2.22854956663423
H          -1.77364449848044   -2.93511389097732   -1.87719665156224
O           1.94736551814551   -1.37920875467395    0.41968165546046
H           2.20630183877680   -1.32749304555545    1.34401111739751
H           2.11113381138114   -0.48004048332105    0.06581559297841
O           0.08824083827969    1.68458562032074   -2.11402635071837
H          -0.31072071743574    1.77741658204212   -1.23137394501918
H           1.02015586244386    1.53175259775357   -1.90865141328855
N          -0.71256676304507   -1.08523746404227    0.52413302454478
H          -0.98308806238324   -1.32789574398589    1.48451995090257
H          -1.32361155492909   -1.52128722192649   -0.21016719612512
H          -0.73058225241591   -0.04035238451021    0.45770615379808
H           0.29370697800852   -1.36664639553056    0.39937001060889
