    26
        -50.47142881  Gyration_radius:  2.45717058965 Dipole_moment: 3.737
 S          -0.30099852723699   -0.07506564398862   -1.64818611915918
O          -1.27598623602185    0.09462328907907   -0.56060804901983
O           0.98537634212463    0.50294044973614   -1.23973298200809
O          -0.16603543543078   -1.45161440635542   -2.04431143005084
O          -0.81195062130709    0.75192757541623   -2.86331847153605
H          -1.01384080578490    1.63146081579245   -2.47657708028472
O           2.00549964188650   -1.63878532754524   -0.08246691295267
H           1.72034792721692   -2.35220769931018   -0.66089966117960
H           1.82838338196433   -0.81879488381437   -0.58917595694566
O           0.23367156125151    1.13657625247654    2.84390018284608
H           0.54425071043348    1.62149482972426    2.04651703888886
H          -0.53824264206175    1.61093670312153    3.15665667796365
O          -1.31855742331220    2.68975181738927   -1.12442463916642
H          -0.54776301553494    2.97938110145886   -0.61848911217625
H          -1.59573859506566    1.85964593802927   -0.70092694204055
O          -0.91223675358580   -3.18673963469903   -0.12526441188727
H          -1.41888620100964   -3.88912408327603   -0.53477481816668
H          -0.68676006815699   -2.57352448395573   -0.85263315655549
O           0.97863220019467    2.36493782800245    0.55676633105723
H           1.86830295944613    2.72272969487751    0.56598314012364
H           0.99114688074170    1.63973357143792   -0.12239582501963
N          -0.11606549706707   -1.13347071315519    1.44989704981619
H           0.03020690450373   -0.42199465826854    2.19799136628771
H          -0.68452642623036   -0.67787199429295    0.68151023514918
H           0.80013099527901   -1.40777741403681    1.00001000314716
H          -0.59836124725259   -1.97916892382369    1.74495353286465
