    26
        -50.46944617  Gyration_radius:  2.4850141567 Dipole_moment: 3.870
 S          -1.13862475353074   -1.03841013353688   -1.24307749045041
O          -1.01682540324322   -0.51461830397182   -2.57882279428619
O           0.16759037654154   -1.22753310898749   -0.59729748542730
O          -2.04631033009532   -0.32979562282426   -0.36839139926887
O          -1.74171667284551   -2.50377328402587   -1.41007313790758
H          -1.65106786922295   -2.65219882357616   -2.34554810453638
O           2.39662616344593    0.07101912773710   -1.08060584017515
H           1.58644786113412   -0.47641319573083   -0.94822671230358
H           2.99104534418200   -0.45387951743539   -1.61844659844906
O           2.81488581677400    0.91410893331387    1.48035012318815
H           2.99025061861658    1.85591115637451    1.44352814918805
H           2.79786218339692    0.60285158253237    0.55288780774801
O          -1.21909276141488    2.08249407678829    0.59400997027639
H          -1.90083971065057    1.44655933475644    0.32782375021038
H          -0.69921424070159    2.21077734895771   -0.22795367376246
O          -1.87089205752342   -1.51694962343109    2.03099549651502
H          -2.36106871174637   -2.33930104792950    2.02370773159419
H          -2.03238363686793   -1.10151707619842    1.16112402774165
O           0.16084652364722    1.73220141571193   -1.67343988860400
H          -0.32600155809501    1.02426581394327   -2.13055319687314
H           1.06791130182501    1.41280314379912   -1.58649017401073
N           0.22085812137414    0.16327052495400    1.67268907698525
H          -0.27185921569378   -0.33886115702941    2.41241185011575
H           0.21779597122167   -0.46432422057462    0.83137210796371
H          -0.33900717082513    1.02547101710582    1.38347482721266
H           1.20278382025871    0.41584161917125    1.89455158729437
