    26
        -50.47142886  Gyration_radius:  2.45712145166 Dipole_moment: 3.748
 S          -0.27574186098753    0.09469690317777   -1.65084571365651
O          -1.44046661783961    0.28395873964676   -0.77701387241808
O           0.94506128347657    0.46090481377135   -0.91750076308867
O          -0.21255648096551   -1.24448159557316   -2.17300023359184
O          -0.42252517810374    1.09212441581762   -2.83603524500160
H          -0.30874335397356    1.97167962105723   -2.41460492068630
O           1.53537834148933   -2.81238608401484   -0.85509568914016
H           2.02372816726879   -3.32677261207128   -1.49905386588369
H           0.93535509390936   -2.24556914454056   -1.37908501885446
O           0.49100693057298    0.87841173149650    2.90184774190214
H          -0.17564644207985    1.30582207470073    2.31848228324401
H           1.18846526527950    1.52473613263426    3.02257618872610
O           0.18803744535205    2.99986182814419   -1.09817312913755
H          -0.40712090300451    3.04567497324615   -0.33809859660288
H           0.77925301225424    2.25244978743484   -0.90533586412156
O          -1.46772954155297   -2.11224353934931    0.32967053224971
H          -1.23900650378771   -2.68981097678059   -0.40446324591123
H          -1.67370157630875   -1.24863611125284   -0.08534505385572
O          -1.25135092350731    1.98728250386101    1.16102426842891
H          -1.32696958517257    1.32001403542834    0.42857565131822
H          -2.14153737141087    2.09647377352176    1.50070165726780
N           0.86771561601841   -1.13708529442228    1.16494918738419
H           1.01444975994719   -0.50598023327079    0.32751838511558
H           1.60695620379772   -1.83586629179755    1.17129684019742
H           0.82261689782328   -0.53144616037680    2.01243989173404
H          -0.05492766848610   -1.62381327045699    0.99456859438662
