    26
        -50.47142883  Gyration_radius:  2.45722397848 Dipole_moment: 3.749
 S          -0.23900229316200   -0.11023704053255   -1.65740463475975
O          -0.46475500442818    1.20507855525818   -1.04520634907504
O           0.70665532308932   -0.87418204231487   -0.83012369668895
O          -1.47266424942204   -0.82078410114014   -1.86530901306566
O           0.44127754847973    0.13415779796446   -3.03527675378976
H           1.32785694943177    0.48276203675020   -2.79727244464775
O           2.62361457566103    0.76250740905942   -1.66619528898620
H           2.23566035333270   -0.01249308890381   -1.22550538977432
H           2.50119997693957    1.48887950485874   -1.04056232287192
O           1.36410414594257    0.59648874183121    2.68665576768711
H           2.25820518913435    0.26278018287682    2.77596519501733
H           1.38268582731737    1.21978348438913    1.92594407577197
O           1.37714454518753    2.17171280818631    0.49304384167630
H           1.13032481445691    3.08406519328057    0.65521831280456
H           0.65817018280774    1.80067717265887   -0.08389438655631
O          -1.96556546364077   -2.67112831558393    0.02708487274461
H          -1.77808052631695   -2.04235836267860   -0.69780336331413
H          -2.30823428092859   -3.45624030793130   -0.40179191319090
O          -2.47604709523417    0.54373543799316    0.53114084630630
H          -1.84654434752565    0.96853540028075   -0.08836761306981
H          -2.98651318037677   -0.06276344971996   -0.01334984926557
N          -0.49206400924995   -0.94551708904696    1.50508160008939
H          -1.34624928190816   -0.35906505067243    1.29606234281752
H           0.02947557940800   -1.02416725677854    0.58693998993468
H           0.13645687807433   -0.46602289806934    2.18496756803871
H          -0.79711216707115   -1.87620473201004    1.77995861617028
