    26
        -50.47220498  Gyration_radius:  2.41986109783 Dipole_moment: 2.801
 S          -0.72946510805227   -0.96995264719873    1.21933799352361
O          -1.34698976987400   -0.99862105854273   -0.10299461340333
O           0.10873845223309   -2.11953283052741    1.45365952129466
O          -0.07055105317798    0.29555952053818    1.48345418598461
O          -1.91991466229259   -1.05423391323497    2.26667045921684
H          -1.99919210236367   -1.99440153356360    2.38374993518797
O           2.26696289585479   -1.74717296000146   -0.08589440746165
H           2.52865402467854   -0.83985438195252    0.13841862126376
H           1.58799205300716   -2.00301487869545    0.57171155638549
O          -2.15254652664919    1.97132321971889    1.63714541247696
H          -2.84697009097858    1.44955217495676    2.04266058037523
H          -1.34649014877352    1.42908787624411    1.69956956490466
O           0.85383714575342    1.43052278904726   -2.04515367124833
H          -0.05771093407805    1.65950464365325   -1.74336803225924
H           1.42082772780588    1.49225207569494   -1.25748934013680
O          -1.61032825974656    1.54013702867911   -1.04562134808141
H          -1.85071886707526    2.03908567962440   -0.24938426846515
H          -1.64827583942629    0.61012028929831   -0.76421130848197
O           2.17352294143425    1.00607784221155    0.35205170311943
H           1.32948196470032    0.78631481333866    0.81030859446421
H           2.62275104498485    1.64295164474042    0.90984249681490
N           0.53615276498259   -1.14683857195198   -1.96796800621014
H           0.41718479366542   -1.68192139901433   -2.82024801698689
H           0.70226049758323   -0.09518740212963   -2.16079385116028
H          -0.30981536521470   -1.20053085106375   -1.35427960679172
H           1.34060242101987   -1.50122716986732   -1.37117414432504
