    26
        -50.46217247  Gyration_radius:  2.68770757075 Dipole_moment: 2.023
 S          -1.42355564424930   -1.90991813275407    1.30893515320123
O          -0.26708253201907   -2.50986764696819    0.65793488880820
O          -1.04334242861680   -1.06064110789745    2.42318046511939
O          -2.30805737403348   -1.26026834295668    0.35746132877781
O          -2.25753807043987   -3.10400474268173    1.93803797440187
H          -1.70768615190082   -3.33367818437855    2.67961521983590
O           1.87232990269203    2.54053781957283   -1.50696143739055
H           2.51597256102789    3.22293207363790   -1.31516214045861
H           2.15584480119598    1.74104309175749   -0.99497140003420
O           0.91485010165356   -1.49713636663269   -1.37473582908924
H           1.32033953255607   -2.22180320478168   -1.85247886511090
H           0.47747329494496   -1.90815296506891   -0.57424759114453
O           2.33401126656132    0.42936670064348    0.02119898847843
H           1.69709780940855    0.59490733250551    0.73787607161750
H           1.96874517194761   -0.31925530469544   -0.47754433839037
O           0.28902604167143    1.04933541672490    1.77629544080263
H           0.45666186121369    1.47625215467354    2.61823303547271
H          -0.23603989124611    0.23336279625684    1.99658020734229
O          -0.56733331462238    2.41302466977620   -0.42796208701435
H          -0.33039027201884    2.04939452925917    0.44651429085376
H           0.28832315847742    2.61574257369827   -0.86898143944269
N          -1.23497917514533    0.15591506951284   -1.54112747653727
H          -0.35569688069224   -0.35935500289462   -1.72585665348575
H          -1.80350954440498    0.22737183774949   -2.37740602323949
H          -1.74544802534002   -0.39809397829119   -0.78759086131978
H          -1.01001620861616    1.13298890422461   -1.13683689205943
