    26
        -50.46391692  Gyration_radius:  2.52047458518 Dipole_moment: 4.407
 S          -1.23211164733054   -1.29088818909599   -1.06061988084790
O          -2.46232003065726   -0.52776907883029   -0.86138282773497
O          -0.20713122366940   -0.48513594473776   -1.70625286792730
O          -0.77128256794920   -1.90713905673072    0.16317008477225
O          -1.58688842643041   -2.45828812080473   -2.06068220766608
H          -1.87008579839051   -1.98050757999821   -2.83347577492869
O           2.53335572266672   -0.43102631102646   -1.35966310172619
H           2.48345323037085   -0.67528858970134   -0.42301373592354
H           1.62670958166959   -0.53397618454250   -1.69260011399205
O           1.32211605344597   -0.55627772213932    1.19915935018714
H           1.06770619578718    0.32549699304289    0.87109698889753
H           0.71276863798859   -1.17331205761856    0.75316059393878
O           2.64424188988055    2.23877216439575   -1.08756953575561
H           3.42617905084103    2.44108776491016   -0.57243499439184
H           2.71603404849341    1.28599251550405   -1.33199054880027
O          -0.92559385806421   -0.96711203812666    2.72756649503365
H           0.02955110607981   -0.79708933159304    2.63543693443351
H          -1.09374064230995   -1.65140146374716    2.05956340473650
O           0.23546095563834    1.60834411322014   -0.11913512767124
H           0.03210029070104    0.94940851032653   -0.81582275973502
H           1.03851744112178    2.06986831706935   -0.44437851952258
N          -1.96122433269075    0.92770475521837    1.21273117802551
H          -1.15414289460011    1.47429276469182    0.85245701985591
H          -2.29892029756397    0.34605247485979    0.37674026554528
H          -1.61047653964352    0.23747898014790    1.94785456027606
H          -2.69427595538736    1.53071231529200    1.57008512092379
