    26
        -50.46819106  Gyration_radius:  2.43087956237 Dipole_moment: 3.471
 S          -1.65834014721605   -0.72237450419980   -0.77108515025712
O          -1.70245904371754   -0.17447653817428    0.58072832935371
O          -1.88654176302058    0.30663040356247   -1.76683186069888
O          -0.45390882590025   -1.49532925901516   -0.99371034326265
O          -2.86529687046734   -1.73401958654569   -0.89091403856451
H          -3.59836297584704   -1.13787316200167   -0.99700970575846
O           1.54852640667102    0.07971715809659   -1.93332561855705
H           0.84724576291619   -0.57461655845726   -1.76771561595659
H           1.09646413409673    0.92992341756434   -2.02344759422270
O          -0.21362283524155    2.28829954076893   -1.62315268006656
H          -0.89087646151943    1.56779386871314   -1.70000085486421
H          -0.44128391921940    2.93737847614743   -2.29039862543151
O           1.00902896922544   -2.16719465195633    1.10046820782090
H           0.41044941792472   -1.95507277202012    0.34864287670205
H           1.28743629105719   -3.07487102466549    0.97062073263127
O           2.43896617729690    0.08712039299112    0.56902972270116
H           2.13075025908498   -0.78482629968570    0.87925312760400
H           2.34967436228730    0.05760381264606   -0.41262108137909
O          -0.24759175833730   -0.39677864193203    2.98242526474065
H           0.33119052823832   -1.08496541625600    2.63326295920378
H          -1.03148399573949   -0.43310218301352    2.42257204673562
N           0.30736286950852    1.52257514936942    0.94609731252734
H           1.23865518574635    0.96395682133233    0.87852395766234
H           0.23126019129669    2.15873601167590    0.14098846684778
H          -0.48990519490812    0.83655862420319    0.87650042301014
H           0.25266323578963    1.99920692082914    1.84109975149405
