    26
        -50.46688700  Gyration_radius:  2.52783863852 Dipole_moment: 4.492
 S          -1.05704720733611   -0.91174341176866    1.21123635963464
O          -1.14331684433325   -2.11051750894472    0.38860249459473
O           0.14885855977560   -0.90327860458202    2.02751772225232
O          -1.22053453671004    0.29958066358593    0.43815639384476
O          -2.27665122221452   -0.97263221128704    2.21458147441798
H          -2.14400858980341   -1.81461249543698    2.63735921995163
O          -1.18603396089529    1.85973912028114   -1.78922219426247
H          -0.45455232851989    2.39826550250055   -1.46901365500410
H          -1.44350197868357    1.31450297159139   -1.02694619566942
O           1.00355903465369    1.42440145028250    3.09831008170633
H           1.76792631572120    1.19577150267787    3.62931534237460
H           0.62376011512015    0.57801730854854    2.79280838604453
O           0.81838981474483    2.05868957443111    0.43254756777898
H           1.02807091052697    2.22452106243261    1.36524003637851
H           0.00861887560453    1.51545904903650    0.47878830157266
O          -0.50678795315024   -0.08327890215393   -3.42370415954023
H          -1.33081274053267   -0.35373185834420   -3.83164638509938
H          -0.72421496146964    0.72648946303922   -2.89194997831921
O           2.00840132255028   -0.31260443171069    0.18417404152804
H           1.78456765920254    0.64641847528795    0.13888038647549
H           1.50257458150491   -0.63140469825898    0.95625088982365
N           0.56168372831345   -1.64241597183527   -1.53479693120826
H           0.15636896526745   -1.05586912144246   -2.31103476575218
H           1.26036261514516   -1.06821691857771   -0.95858295641292
H          -0.19548407420955   -1.91070063213053   -0.84470317929757
H           1.00980391973183   -2.47084938722427   -1.91216829780906
