    26
        -50.47026221  Gyration_radius:  2.45525746548 Dipole_moment: 3.207
 S          -0.58229164486698    0.03247580785236   -1.72044910803977
O          -1.64871478721111   -0.26896597392529   -0.78659210724498
O          -0.67951534838834    1.33059291446075   -2.34253903454470
O           0.73027178559524   -0.19850690336364   -1.11512793310550
O          -0.72247865923061   -1.02760782773364   -2.89603429280066
H          -0.46364709740048   -0.54790334009971   -3.67650574442662
O           0.47792650831292   -2.13842228476735    2.08573707123300
H           1.36849610288523   -1.78639122475511    1.87977367812455
H           0.20718428662443   -2.58952028501460    1.25976820785158
O           2.51876650888739   -0.74267970441188    1.00121208332891
H           2.09017725130650   -0.70630549601441    0.13451169191715
H           2.56745865594845    0.16918774503336    1.30131227462922
O          -0.22125148939113   -2.65436600759773   -0.46869240170681
H           0.23035825263098   -1.86056839975140   -0.79598956399648
H          -1.13770105643544   -2.53549342638675   -0.72920606048971
O          -0.92259436445992    3.24462127969067   -0.52419635379114
H          -0.93790936624075    2.56440595389004   -1.23190741126906
H          -0.81257474831384    4.08590294264533   -0.97090547381659
O           0.90520343276882    1.75720286211257    0.73914270326206
H           0.98359861919130    1.15378442995724   -0.02383043128922
H           0.33509641990537    2.48382264141787    0.41557428364384
N          -0.87618888969321    0.05457695296590    1.72155153499257
H          -1.32288903485524   -0.10016036574715    0.78220935794677
H          -1.56426049926542    0.33297900750622    2.41173147691571
H          -0.36740540811837   -0.86119490018906    1.99241931694220
H          -0.15511543020037    0.80853360222546    1.55703222574194
