    26
        -50.46787142  Gyration_radius:  2.51267932817 Dipole_moment: 5.325
 S          -0.01741872807358   -1.91536386948687   -0.60920113763145
O           1.15891069391569   -2.45523101107676    0.04711580630206
O          -1.01624684727530   -1.49328275552666    0.37723130518902
O           0.27095602429650   -0.88728672021835   -1.58000656515755
O          -0.67175767755828   -3.11405828497207   -1.40910769806703
H          -0.60743123233327   -3.85082506241918   -0.80958500079738
O           0.04242441635686    2.51424678682192    0.61032211527894
H          -0.78110279106073    2.55246236075250    0.07094283082176
H           0.75532400112144    2.21142909857857   -0.00091109107937
O           2.48209768459258   -0.64958437866940    1.35099157906883
H           3.29432419369736   -1.03012108240755    1.68872497734769
H           2.03458052109349   -1.36944086836424    0.83370455466057
O           1.85344039992891    1.14937661733721   -0.77252198564476
H           1.32146493531237    0.46779929512425   -1.22152354259477
H           2.34321243473102    0.67562961818509   -0.08777257267491
O          -2.29589943182205   -0.18884899503995   -1.61828609877487
H          -1.39626464835699   -0.34786686406470   -1.94945193355200
H          -2.30841635376997   -0.68807416019767   -0.79084060949149
O          -2.13908802803791    2.38151996500238   -0.91291638495572
H          -2.27438051846601    1.43792863417261   -1.16792122677829
H          -2.13923709208796    2.87889635693801   -1.73181338526475
N           0.00985322119619    0.34005422472724    1.96571243389476
H          -0.48809695675424   -0.38035107432463    1.37695822844392
H          -0.39324849972498    0.38822067299786    2.89463728941884
H           1.00331954107348    0.05632247480086    1.99905165830853
H          -0.04131927175394    1.31644904136417    1.44646646365682
