    26
        -50.46207825  Gyration_radius:  2.61200715535 Dipole_moment: 3.912
 S          -0.15473386588509    0.53712996502524   -2.45465852714684
O           0.11357072008379   -0.89299339128342   -2.33642450150845
O          -1.57682690318936    0.82510043423167   -2.43410308793504
O           0.60281300900297    1.31136571546305   -1.48917750953178
O           0.37572324310652    0.97620985140828   -3.88233176637965
H          -0.24680144100175    0.56651284609029   -4.47500570966834
O           1.07389361426253    0.23847096026794    2.60423455851743
H           1.90069711620013    0.25657094819037    2.11121498801200
H           0.53580680323881    0.95361002054088    2.20554742975257
O           2.29498960493842    0.01642392664746    0.04944019738184
H           2.84305411802048   -0.53082992059921   -0.51465021577705
H           1.80223773458458    0.61570513776995   -0.55508366519321
O           0.04235262817732   -2.27067199724854    2.63797362467173
H           0.06383857438091   -2.69603325815782    3.49466084983221
H           0.41119849127216   -1.36998011891919    2.76643249477526
O          -0.28950132327638    1.99299660987180    1.04552292505483
H           0.10813886569920    1.96667426413489    0.16065963266856
H          -1.20959157720527    1.73525974868166    0.91352322349037
O          -2.37371966343959    0.47602315711205   -0.00095984563766
H          -2.12576419310841    0.67736894485915   -0.94231868546362
H          -3.30061641404085    0.23279455116333   -0.01460780345515
N          -0.18857588704181   -1.14647901806581    0.22793768565773
H          -1.01679902523982   -0.53670005944444    0.37832288630663
H          -0.11069620131561   -1.30812930300661   -0.81201091473774
H           0.68581666942441   -0.64629295580590    0.49294494420860
H          -0.26050468764900   -1.98010704892526    0.82291680210905
