    26
        -50.46862444  Gyration_radius:  2.56436895378 Dipole_moment: 2.420
 S          -0.47567571456617    2.05228555029343   -0.22915321558214
O          -0.22040489924277    2.08368431293550    1.20210229377698
O           0.61088908989566    1.37756674845970   -0.94751160860665
O          -1.76853034395629    1.52394453585841   -0.57871360999879
O          -0.45405144463435    3.55849650572546   -0.72073726860701
H           0.34806424670082    3.92327724468970   -0.35739181723386
O           2.22918428914423    0.85168987523790    1.13045051210803
H           1.66773149690467    1.38232075038621    1.70782388586591
H           1.84539366407341    0.99962653860718    0.24788658144269
O          -2.52437658259079   -0.43341729381451   -2.23575114552577
H          -2.75941539880958   -0.07284947162573   -3.09147991525669
H          -2.38956529816614    0.33524983534667   -1.64355129752575
O           1.57353101693413   -2.94178854768650   -0.40317762541611
H           1.57541233872591   -2.60189164002951    0.52807293673720
H           2.47554279293655   -2.85940073276195   -0.71572609353009
O           1.43067208653858   -1.62174402520060    1.87847734100305
H           0.52174777985714   -1.39081180900444    2.09952679735310
H           1.86718472398664   -0.76979765591331    1.66235725284318
O          -1.14644468746259   -0.33765493611338    1.59692297470625
H          -2.10084100499266   -0.24627883674277    1.63461507808210
H          -0.80040012459253    0.58423811549877    1.55061357489354
N          -0.29691585084694   -1.10465260380189   -0.88188655415764
H           0.39117720902046   -1.89698760464722   -0.88994451628318
H          -0.69442214236614   -1.00614473741933    0.07700162868293
H           0.17296138240864   -0.18755951752909   -1.06961263986481
H          -1.07844864469560   -1.20140061059534   -1.55121354988284
