    26
        -50.46583309  Gyration_radius:  2.4731651751 Dipole_moment: 3.136
 S          -2.04424051621739   -0.05114556367999   -0.94624810471805
O          -1.97200903087911    1.12117306688281   -0.07326284276814
O          -0.77414880591664   -0.23025768102527   -1.65068625421099
O          -2.51702724089347   -1.22831454251932   -0.27675617851813
O          -3.10372066585257    0.30696944673809   -2.06775088293542
H          -2.69088660438726    1.02151482569362   -2.54280904338444
O          -1.31296707835266   -0.35635833028218    2.12442331406861
H          -1.67236014049175    0.18901081447595    1.40614472618342
H          -1.92498733210888   -1.09144761558583    2.19021725089298
O           3.26738537862375   -0.30746420401179   -0.52567342363130
H           2.70424175487120    0.34501017261924   -1.01923944872089
H           3.34318310725518   -1.07344295183530   -1.09714942905847
O           0.28033052890882    1.96216347768254    0.88903990095650
H          -0.57623593851313    1.69790897552652    0.46342606558344
H           0.03045705676003    2.46578669238919    1.66585065702144
O          -0.04746056331808   -2.21401368926850   -0.11693610694324
H          -0.11339212939584   -1.61272571165599   -0.88633011578432
H          -0.98053060088675   -2.29626077726413    0.13210510740852
O           1.44645590270335    1.28339533793093   -1.58253418903435
H           0.65611923698431    0.72528384988177   -1.72382526223904
H           1.21748019172078    1.85478531713289   -0.83949754116092
N           1.36902891539716   -0.50341408490880    1.31904737434825
H           0.90025716266987    0.43071259178519    1.25687760970135
H           0.72632452417628   -1.22688192620583    0.87401589929800
H           2.24851013688033   -0.47262237993013    0.73760154169581
H           1.54019273025799   -0.73936510057212    2.28994938594605
