    26
        -50.47398713  Gyration_radius:  2.43767832579 Dipole_moment: 2.204
 S           1.21415872301796   -0.79604275070724   -1.26349383927349
O           0.11063910165725    0.00845781106257   -1.78557685966691
O           2.41778055232494   -0.02269909190365   -1.06524179982569
O           0.79350809832449   -1.56071208874040   -0.10578723658436
O           1.55958404697081   -1.85425035762808   -2.38817775437266
H           2.19735789174428   -1.36216971833627   -2.89238461000942
O          -0.02092572681145    2.42402743776743   -0.48900703140185
H           0.05588896318841    1.66729180678458   -1.09381038669334
H           0.78187732864637    2.39827624722276    0.05470956113343
O           0.29106775909640   -0.00897741641256    2.05378783792012
H           0.49161965687638   -0.64115123394883    1.34044912885947
H           0.99175547082520    0.65559372497535    1.98570944008035
O           2.23301924571448    1.64817576102278    0.94532184787459
H           2.37004297384999    1.00841472146731    0.20744440904592
H           3.08373540532715    2.05806276284575    1.10841401970071
O          -1.47236061741021   -2.68329335048307    0.69699771346559
H          -1.42608874207422   -2.56637216637273    1.64925280494295
H          -0.57086222297956   -2.48843503755692    0.36811377118438
O          -1.81354899232114    1.39279782728650    1.18435457171152
H          -1.27599999411901    1.99200555834617    0.61470401856303
H          -1.13921146067721    0.90628307346509    1.71140833076841
N          -2.20410853871303   -0.44497399660287   -0.58394313411127
H          -3.03785003370305   -0.39741455733667   -1.15803492382850
H          -1.33789652841997   -0.30452857915677   -1.16417709689568
H          -2.18031559250842    0.34320231041558    0.17145133216193
H          -2.11286676780596   -1.37156866757004   -0.10248413473942
