    26
        -50.46927610  Gyration_radius:  2.52095631311 Dipole_moment: 1.689
 S          -0.04702316639773   -0.45530359220116   -1.60748307020555
O           0.34168635817584    0.95182915220075   -1.60558357774892
O           1.05789480041299   -1.33608203090061   -1.27833747844949
O          -1.18540898224580   -0.67972537487155   -0.71939758641074
O          -0.50465578266787   -0.82020447140527   -3.05536493735404
H          -1.16337312300566   -0.12600590839879   -3.23983720294988
O           0.80177935204203    1.87209223964752    0.86922898127947
H          -0.10943916449249    1.73860831402922    1.18517372948986
H           0.76891133945663    1.61343061636163   -0.07228013457963
O           2.53417950968623    0.35991974135918    2.09462560425345
H           1.87334101833231    1.00004599676832    1.70615295958685
H           3.37529285234935    0.58988561533171    1.69667385217911
O          -1.75959621220279    1.52973033098386   -3.02458956479522
H          -1.56047882851552    2.14503703312526   -3.73375633156066
H          -0.99166334427653    1.55197374395956   -2.41412349752730
O          -1.25576736953511   -1.70174416245656    1.74456979349346
H          -1.53362114064398   -0.88313336470504    2.17048935382377
H          -1.38438278059086   -1.52860966300997    0.78939702780278
O          -1.81708528410507    1.11659935713123    1.11389785122270
H          -1.63350226799867    0.50320479990056    0.36690930707526
H          -2.46988576631643    1.73767402092659    0.78806406528297
N           1.34699675133354   -1.85451206995408    1.26158437102974
H           1.80974619170823   -2.73330806214211    1.46592409373899
H           1.27827927796439   -1.70315810074801    0.21028635698987
H           0.35182004643954   -1.85577465920110    1.61904292981353
H           1.87595571508266   -1.03246953172333    1.66873310451988
