    26
        -50.46781206  Gyration_radius:  2.39635678442 Dipole_moment: 6.281
 S          -0.31371486555816    0.27918554693466    1.42313776636191
O          -0.43449959229130   -1.12771015860961    1.04583789286579
O           0.89752737798730    0.56370257973287    2.14551418627325
O          -0.58542742112665    1.16163172498119    0.30624477132584
O          -1.50881412216184    0.53796824844265    2.45370055401171
H          -1.09277891684828    0.42603167770428    3.30246412089787
O           2.39821448506628   -0.08775255551885   -1.52741442686699
H           2.41714206773983   -0.79933421806570   -0.86052032230492
H           2.53878404955165    0.72917718145463   -1.01257590339115
O           2.17609347879417    1.99078052685274    0.24020488837640
H           1.44848829542025    2.53420045352530   -0.07019963367263
H           1.82570352657259    1.51258240835194    1.01155189969985
O           2.19760895617477   -1.61142849199578    0.73182871037951
H           1.24110123338107   -1.57620858411892    0.89417839993709
H           2.58354568413797   -1.02386693174490    1.38699283780055
O          -3.11146812883469    0.37082947933981   -0.00784333721884
H          -3.45333821546430    0.27317886898104    0.88260478631001
H          -2.25295711420046    0.82487213327330    0.09573333675282
O          -0.03385560354603    0.45897596952018   -2.29611363137171
H          -0.23362299440107    1.02024744839880   -1.53038605042114
H           0.92258608186930    0.20408516348471   -2.16470816380882
N          -1.54188607064572   -1.37153544920795   -1.31462617156028
H          -0.91195517808304   -0.68382863667012   -1.88836883802690
H          -1.05666165349381   -1.46694777252203   -0.38447550567400
H          -2.42376268992884   -0.87589801211508   -1.08996513418173
H          -1.69205268006283   -2.26293858043250   -1.77279702252770
