    26
        -50.46574824  Gyration_radius:  2.5021928545 Dipole_moment: 2.567
 S           0.14724767283243   -1.35588458552237    1.52239906130653
O           1.17187196817025   -1.06036821741909    2.48670196628547
O          -1.05087402781563   -0.54743750272805    1.63021610655617
O           0.64483388262704   -1.35939072263715    0.14025111053864
O          -0.30319181127215   -2.86407229104958    1.81595079880974
H           0.34594370878579   -3.15735699077064    2.44763462087069
O          -1.65449625915078    1.67609883764238    0.25171440638248
H          -1.56403123499613    1.00368874575830    0.95216125971747
H          -0.81336723464457    2.16197660520288    0.23109912884090
O           2.39070769847281    0.53525154647954    0.68098503054204
H           1.91315708328788   -0.20712429475516    0.26352838546353
H           2.31814986660265    0.30835929276805    1.61860555185705
O           0.96509404231583    1.40618409433429   -2.63530808355925
H           1.81924172898933    0.97032704934610   -2.60839901217034
H           0.92599790663737    1.96617406436372   -1.83571770975625
O          -2.25404728454313   -2.13022289180945   -0.20542692327943
H          -1.97928317986546   -1.54231555371631    0.51747052427906
H          -2.04327914374527   -3.01273822087170    0.10295648282166
O           0.94748971404523    2.56493897090052   -0.14292360576118
H           1.51406858622982    1.83407785128631    0.22366160308155
H           1.36143125969273    3.38852090867315    0.11822621467180
N          -0.97235335820858   -0.12081260565903   -1.55031013749520
H          -1.69126777343400   -0.73375418618089   -1.92642413650209
H          -0.37497434019853    0.35254474707107   -2.25577086806927
H          -1.40948895869325    0.62280893974537   -0.92405279427285
H          -0.35458051201386   -0.69947359032797   -0.91922898116992
