    26
        -50.46759648  Gyration_radius:  2.49066580049 Dipole_moment: 4.796
 S          -0.54743212714935   -0.11258865312667    1.21687156751309
O          -1.09246547466370   -1.45518765902794    1.22465359135728
O           0.88298281715951   -0.11982710256164    0.88624442568170
O          -1.27654144658235    0.80221193906561    0.35129439027371
O          -0.66352333565787    0.47845932234474    2.66175987953342
H          -0.19665788893563   -0.18591901378079    3.20434896093553
O           1.32837784228851   -0.26535075961844   -1.78396072089080
H           0.59745859295301   -0.78853662761071   -2.18535658668418
H           1.27862920763805   -0.42477875634819   -0.82269256008536
O           2.07034233438347    2.24310437310569    0.75098607670778
H           3.01291062808480    2.07716391342028    0.69136860191781
H           1.65234666240591    1.37173772379409    0.93774600940747
O           0.70718720053238   -1.72403386877675    3.18085233502488
H           0.01186089989079   -2.05697722109217    2.59039040064441
H           1.42620040858154   -1.46891941469768    2.59378267667241
O          -0.82110113656092   -1.54593803918256   -2.70223039138803
H          -1.57302550084611   -1.42180062176057   -2.07305808834848
H          -0.78038975417282   -2.48692579480427   -2.87819842158758
O          -2.71957863449899   -1.23306892324010   -0.86531806044396
H          -2.21966743837030   -1.51932407439580   -0.07654881671155
H          -2.81582560220558   -0.28438653799308   -0.73507688375773
N           0.33933929903105    2.06523704966088   -1.26520384317827
H          -0.42832622147746    1.67707824438710   -0.64511325725422
H           1.04972688564009    2.46253908312989   -0.61443922329074
H           0.78380211425852    1.18244981027402   -1.69963288491078
H          -0.00663034148333    2.73358160892709   -1.94346917665026
