    26
        -50.46631158  Gyration_radius:  2.51140525724 Dipole_moment: 4.317
 S           0.62530166990179   -1.27594005764017   -1.39258678443499
O          -0.77966945709049   -1.58818627895489   -1.22834566141343
O           0.84356247351547   -0.08883212668785   -2.19409123931659
O           1.31432121483165   -1.22209071533216   -0.10659540985978
O           1.29697935053224   -2.47697145852212   -2.17830647036029
H           0.97014809456547   -2.36346498188309   -3.06544368593083
O           2.42970313201036    1.05811326663696    0.64707567283414
H           2.08576062155728    0.19492388113438    0.32064074664864
H           3.35646430347697    1.08166784163452    0.40582949798219
O           1.11702065559774    1.02943368068431    3.07416494656869
H           1.66682724902218    1.16102956055621    2.27909568924614
H           1.67101885901581    0.59375939266557    3.72268601216729
O           0.01762377605132    1.85808710901151   -0.65192991811493
H           0.31489810229388    1.21359522530000   -1.33674084981558
H           0.83494260451907    2.17194431682135   -0.24698075344531
O          -2.91507939919757   -1.10608592812994    0.58436184742275
H          -2.44024243974882   -1.77130613377353    0.06903930800135
H          -3.15147521904462   -0.43361099547345   -0.08172676660576
O          -2.46075843220529    0.53849174548834   -1.52701830112898
H          -1.83772844292326   -0.20129065578656   -1.63883981009998
H          -1.92139800320125    1.33235008819200   -1.47692417182551
N          -0.62651777114098    0.05706658782796    1.23369557001324
H          -1.59385284185826   -0.36560559762229    1.19656838787407
H           0.05408462842376   -0.63486529877456    0.85830369109362
H          -0.56790706110031    0.87043371664854    0.57060167261480
H          -0.30402767778618    0.36735383597395    2.16346678987879
