    26
        -50.46174638  Gyration_radius:  2.5739231834 Dipole_moment: 1.866
 S           0.57418391619315   -1.55322288866272   -1.87094199671375
O          -0.83559699480866   -1.64320991217300   -1.49744766759946
O           0.87680749435384   -0.23300568889612   -2.40528598864481
O           1.46190823398591   -1.96479740603670   -0.80757394292029
O           0.79053934585644   -2.57797727832310   -3.05880842688967
H           0.23286653433407   -2.23540179106821   -3.75065867345099
O           1.57915487803007    1.36073274714430   -0.46736601227167
H           1.32079859563020    0.81966057621811   -1.25538382405798
H           2.53712729070510    1.34125145852342   -0.44893253478673
O           0.35399686195269    0.97788108112798    3.39499839371331
H          -0.07485855177676    1.48516155442249    2.67916672755567
H          -0.03192175660725    1.28877738331970    4.21364176036350
O          -1.48218477881827    0.92445339822130   -1.16856633314795
H          -0.98496691024751    1.41246598642938   -1.82850686381359
H          -1.27800656669663   -0.01477066029408   -1.35369190898401
O          -2.01456012910223   -1.16447384587341    0.85988696206355
H          -2.53329334538997   -0.39124793644958    0.61973173686607
H          -1.75555811276998   -1.57800699989284    0.01412353853521
O          -0.62183972988134    2.19181156005391    1.11590159327296
H           0.18722374044673    2.51886610601589    0.71014141915474
H          -1.09741772185933    1.75527889381097    0.38449578680501
N           0.56901600690598   -0.55455430256578    1.20337347807811
H           0.80685107094762    0.34200920676959    0.72674516640787
H           1.02018640666460   -1.30108358197276    0.62385149399796
H           0.87378885894077   -0.49167230286733    2.17809941861742
H          -0.47424464699032   -0.71492536698053    1.18900670784865
