    26
        -50.46862856  Gyration_radius:  2.47497112173 Dipole_moment: 4.033
 S          -1.22821779302917   -1.57527941547480   -1.02811343131379
O          -0.54569630569151   -1.77120587051313    0.26231939022839
O          -2.53572696478028   -0.97751046573292   -0.85333782211208
O          -0.37095776565266   -0.91039989528429   -1.97095400419428
O          -1.50130342784246   -3.03728323138323   -1.58495326661228
H          -2.34188150077599   -3.23179067437171   -1.18397710391201
O           1.34185684005752    1.05803879559539    2.12765286867103
H           0.38955168544200    0.74499922747371    2.16862146862073
H           1.57919094562288    1.32284745095506    3.01646492120863
O          -1.09778225487933    0.17204722553586    2.02897284834073
H          -1.56127145802802    0.79077913077805    1.44406089983843
H          -0.99555480146287   -0.63867066600737    1.49181345523395
O           1.90130167788886    0.47888572430705   -1.90282411466771
H           1.55052430452964    1.30945388815798   -1.50420093830418
H           1.10788138851340    0.01115039942145   -2.22447727143490
O          -1.93048488716694    1.47334985359086   -0.25563978474466
H          -2.56395446328794    2.06041647323506   -0.67193700417542
H          -2.17397777412699    0.55937127293914   -0.54382440647593
O           0.71417017758661    2.30264587603627   -0.36482880560682
H           1.01353564130709    2.07850321287631    0.52659161743576
H          -0.22453113146030    2.05033298863329   -0.39904634020304
N           1.92045591449090   -0.87080371107482    0.29855499119638
H           2.04369813120220   -0.33584744083663   -0.64565264289882
H           1.90821654705075   -0.17563649686491    1.06920106776425
H           0.96031867886788   -1.31858618288788    0.26167301323279
H           2.64063862563186   -1.56980746910008    0.43784039487810
