    26
        -50.45964182  Gyration_radius:  2.59428010437 Dipole_moment: 0.615
 S           0.00268503827389   -1.53065265435728    1.79137517075802
O          -1.23992906427534   -1.40730118826710    1.05323852617767
O           0.75342675080522   -2.71796175080049    1.44165378834779
O           0.78365526806223   -0.30480445586846    1.76014497256989
O          -0.40534407818631   -1.70659637919363    3.32956946983062
H          -0.66877333442791   -2.62019467194869    3.38940563905809
O           1.46080346189237    2.98739034714257   -0.53962612315033
H           1.46450175283765    2.23085141878114   -1.17488838045991
H           2.34099918940349    3.01181147030019   -0.16057165919572
O           1.38581785685740    0.77937625350375   -2.00422241678346
H           1.45397705866156   -0.01779493406073   -1.45336371747441
H           0.56638960305729    0.66630147481383   -2.49703013021920
O           1.04445360776870   -1.76664279246635   -0.94808619047077
H           0.91167265321776   -2.08918288704708   -0.02482481412475
H           1.63490210923330   -2.40082268315209   -1.36260421764005
O          -1.07941997359788   -0.71232167995172   -2.33575333868552
H          -0.42018783426262   -1.16329430273270   -1.77248823742104
H          -1.73220995051530   -1.37600601487477   -2.56358834076329
O          -2.27001102072954    0.62107776000401   -0.26503082674495
H          -1.93717538819310    0.36091038460468   -1.14341349959701
H          -2.07255548610570   -0.16854489307667    0.28691768891797
N          -0.40048229156135    1.89356739710041    1.04824075302787
H          -0.73576908663287    2.44987308424216    1.82611617704185
H          -1.21501889578470    1.53008439477338    0.45875100280063
H           0.27808410271796    2.43368392021448    0.45721467009237
H           0.09550796149165    1.01719337231263    1.40286406411147
