    26
        -50.47026658  Gyration_radius:  2.46860955429 Dipole_moment: 2.445
 S           0.92680379010674    1.21947613314216    1.23406228563370
O           1.27341036522685    1.56153464313167   -0.15014887164299
O          -0.47041137540015    1.48418454809484    1.49362317887552
O           1.35946681558862   -0.11551385461248    1.58469516699160
O           1.74963624403803    2.20975604704544    2.15316823253806
H           1.19956923201748    2.98504258339864    2.13222476474185
O           2.77886347333532   -0.57635920778741   -0.74909713466391
H           2.87664216688266   -0.89966100225822    0.15171862527522
H           2.36752883996924    0.30054609098758   -0.63496097158460
O           0.58814071669056   -1.81401484348390   -1.68390643847214
H           1.49746130480042   -1.49537762539323   -1.48197942337352
H           0.24443876826860   -2.14438893315241   -0.83539237969430
O          -2.93222612097530    0.69939317665562   -0.91235989480189
H          -3.18195192752894    1.56855233104304   -0.59365770948684
H          -2.80908925449173    0.15018183158349   -0.08830918688563
O          -2.27227953282007   -0.48406738687077    1.31443560674578
H          -1.66964656592279    0.25304938003863    1.53722082945959
H          -1.69090102687839   -1.24608091177824    1.16476926940350
O          -0.10849622225793   -2.17360175607649    0.93899382801946
H           0.08714486608893   -2.88737757417787    1.54797738556064
H           0.45232015735087   -1.40842135523231    1.21886626271798
N          -0.46361674037982    0.57468302929024   -1.88336119378578
H          -1.46537710073461    0.63120614271594   -1.54193540521871
H          -0.12967736987098   -0.44659678638738   -1.89628389620717
H          -0.37927223189287    0.97878132052312   -2.81010333791635
H           0.17151871878629    1.07507397955369   -1.21025960226749
