    26
        -50.46944487  Gyration_radius:  2.48668952098 Dipole_moment: 3.813
 S          -0.69605819875621    1.46045778710022   -1.14689818115514
O           0.06112188786353    1.51824358290626   -2.37053033925658
O          -1.73894139520027    0.45973190856431   -1.09815149276495
O           0.16744714664943    1.37175601258744    0.03868793079122
O          -1.42999969475292    2.86915171530388   -1.03031327279308
H          -0.98250432215583    3.38157053326410   -1.69556513428784
O          -2.80354354172152    0.51292921439041    1.36474852698460
H          -2.50314949842052    0.51105780358717    0.43445396757954
H          -3.45065714779834    1.21533027326380    1.43055830617208
O           2.59801485626318    0.39179374275895    0.17843556737051
H           1.71781355177113    0.83386147776073    0.11874076371296
H           3.25022168663627    1.09325252142572    0.20483171877885
O           2.07742433814136   -1.43204439190616    2.13874486230420
H           2.38508093683176   -0.76555115793361    1.49175949928349
H           2.42153969745337   -2.27504611471681    1.83861280821766
O          -0.94265770979459   -2.13358501308179   -0.82820872839200
H          -0.11506197832204   -1.91697550583544   -1.30848804936060
H          -1.55620575549575   -1.44137303946255   -1.11924821335816
O           1.16419516037189   -0.89492780511872   -1.91872759515697
H           1.87638618928823   -0.63506956194221   -1.32080480097229
H           0.78420173732173   -0.06354574266520   -2.25331920026607
N          -0.45688833677533   -0.82840865084106    1.40329906445703
H          -0.67668654090838   -1.49574231874497    0.59899363735757
H           0.37639080194666   -1.14807620097291    1.93320509514473
H          -0.23294126777627    0.09018704756994    0.94788993432245
H          -1.29454260266184   -0.67897810726254    1.96729331528675
