    26
        -50.46061523  Gyration_radius:  2.54374109815 Dipole_moment: 5.965
 S           0.20875657868344    0.28464529500628   -0.35533680342138
O          -0.23543916497992   -1.11376494239057   -0.15695072578630
O           1.55765205299982    0.44940878540993    0.17219761164894
O           0.05739966458272    0.69748470207647   -1.72690292700932
O          -0.68918598683602    1.16241597453220    0.55474946215383
O           0.89698824366579    0.46023581300741    2.70403614044041
H           0.06650119842086    0.94418221584578    2.73063845454254
H           1.25137360775191    0.62822370483059    1.79897764354035
O          -1.57952987593960    2.65543221843503   -2.47993400352958
H          -1.12822958149000    3.49001721487142   -2.34775416564887
H          -0.91344910469830    1.95538044715992   -2.31734372163581
O          -2.23590275627852   -0.96002167410151   -1.92914380207685
H          -1.76757887551558   -0.54957313737730   -2.66202385213462
H          -1.54038406298989   -1.19384862447187   -1.28839553554981
O          -2.91506375000903    1.25281232685712   -0.60908270966804
H          -2.69805900609202    1.90700213985500   -1.30356538953374
H          -2.91200689410190    0.38420234014842   -1.07437937632223
H          -1.63098929081586    1.20977231048499    0.13083605585871
O           0.72166728500854   -1.97037848875665    1.95785272196402
H           0.21993086440954   -1.70613694834110    1.07236257992312
H           1.74961038192156   -2.04657943496777    1.58632465848155
H           0.73129393672479   -1.08981877919739    2.46971433148989
N           3.00210893971239   -1.80922005526821    0.91270144579196
H           2.72557804050327   -0.92411917967471    0.47205029274332
H           3.24676127751024   -2.47268256598071    0.18963108766377
H           3.81019628782893   -1.64507165799988    1.49874053609131
