    26
        -50.47304691  Gyration_radius:  2.48592384073 Dipole_moment: 2.152
 S           0.46842557935374   -0.91305282351033   -1.85713200175074
O          -0.95490604378673   -0.61021474860231   -1.95182493640715
O           1.29158319630765    0.15332467089113   -2.38976353364305
O           0.85155404814043   -1.33646561990900   -0.52368443173897
O           0.71532767304727   -2.17049033285378   -2.79107503517699
H           0.67248872974319   -1.78853261327301   -3.66137346059568
O           2.07791920184209    0.38614126673381    1.13013922342641
H           1.75665309298595   -0.32838170904527    0.54706199569485
H           1.95567416498505    1.19635906562606    0.61251174161021
O           0.42524644675482    0.17727541891969    3.13732513887112
H           0.70117721544223   -0.62410420315906    3.58475096239173
H           1.11025078032888    0.33344717240869    2.42771149860597
O           1.33253276371491    2.21217870902491   -0.81293527263288
H           1.37579101480018    1.44936251602550   -1.44553718738341
H           1.74288533829872    2.95384725817052   -1.26053892047769
O          -1.55444282117698   -2.11432407650651    0.14804700459055
H          -1.76211369822887   -1.71902308305491   -0.71639066380503
H          -0.57840030444298   -2.13046440112135    0.11341321899073
O          -1.30730446263594    1.59174575692436   -0.51109976932417
H          -0.42025343545962    1.99360732566009   -0.52917530177935
H          -1.26641401090144    0.85268923392365   -1.15474704004319
N          -1.74345022475708    0.08995569384739    1.60236737111289
H          -1.59093857262879    0.80156689124735    0.82148237594819
H          -1.75547037260521   -0.85958070959598    1.12459877284927
H          -0.92707625689211    0.13259814917996    2.27135681277924
H          -2.61673906223312    0.27053521204779    2.08451143789832
