    26
        -50.46293960  Gyration_radius:  2.7218346632 Dipole_moment: 5.542
 S          -0.80284643773480    1.90083869577863    1.43958012466545
O           0.47437914071755    2.21064972003840    2.05746485477049
O          -0.84097745165728    2.25478608795107    0.03512452890091
O          -1.22292121133685    0.52973278680977    1.68824669354861
O          -1.89119814631290    2.81232500955237    2.14970070729102
H          -1.66880406235034    3.65825590546434    1.77731915764335
O           2.36329808082846    0.81751705509782    0.99439973588295
H           3.19652458415458    1.13462887377527    1.34597694510074
H           1.65964481491893    1.37889395696714    1.42192903329198
O           0.98786126593059    1.01506687097508   -1.39276773645912
H           1.67349676289172    0.97108608249035   -0.70561698179975
H           0.28396878752729    1.57610119583515   -0.99334797251260
O           0.62757183186689   -3.06874001066256   -3.08711332204422
H           0.69216441819444   -2.58389892424234   -3.91296123221156
H           1.42147892849892   -3.60010619657335   -3.00034848331753
O           0.70117384192786   -1.32753576790472    1.47216992984587
H           1.47246069661593   -0.74131715829316    1.39635222843665
H          -0.02498240622556   -0.73279188848361    1.74893091925740
O          -2.66277700647669   -0.58852771679698   -0.19823500135413
H          -3.26571539133271   -1.15255529193104    0.28896183139478
H          -2.19876757180214   -0.04599168558435    0.48221256758764
N          -0.19884767538892   -1.31015600257878   -1.02245136836617
H           0.26005863968282   -0.39622033084991   -1.31623004512827
H          -0.01195278614054   -2.05075673069689   -1.70449636684380
H           0.19394924613731   -1.52742010901495   -0.06630771408366
H          -1.21824091313709   -1.13386440712069   -0.89849302349720
