    26
        -50.46459746  Gyration_radius:  2.48555366349 Dipole_moment: 3.664
 S          -0.46795403755174   -1.78972121907868   -0.54860808391815
O          -0.49494580249959   -0.79777654004368   -1.60136322108853
O           0.84427557850738   -2.32250572755883   -0.26981146456731
O          -1.15084814594226   -1.27915623299548    0.64668179386249
O          -1.33617714035204   -3.02901530106019   -1.02932726951224
H          -0.64710713150809   -3.61713332022858   -1.31781312963053
O          -1.66057964879689    1.63349103507365   -2.16670304621380
H          -1.70106873868807    0.68047307304658   -2.32874338179722
H          -0.72581219304754    1.84815988431869   -2.38919021650810
O           2.10302682788280   -0.52824541953476    1.24068229415632
H           1.79514083650071   -1.20720947859612    0.60686066045216
H           1.56090255031652   -0.68186909471614    2.03844514907856
O           1.40972985873875    1.84656539789691    0.53610135320216
H           1.73872551159226    0.92368249865123    0.77447067469233
H           1.94390316565094    2.45693474433546    1.04557169012713
O           0.11238436411404   -1.13259869550944    2.98841509801155
H           0.17164715571853   -2.00299565783895    3.38508438757901
H          -0.42587595593548   -1.23967011200126    2.17676541646757
O           0.99449271762804    1.43603895467093   -2.22551695856491
H           1.33015295458689    1.69095552249733   -1.35500092695616
H           0.71663866887685    0.51059791674717   -2.13149829869799
N          -1.23552646960426    1.33690718308243    0.40459596838205
H          -1.85775140523453    1.79101770160173    1.06449532018379
H          -1.50353826526243    1.54644229927172   -0.61490524903970
H          -0.24535065347985    1.64046699652183    0.54718158855787
H          -1.26848462221083    0.28616359144412    0.52312983174216
