    26
        -50.46061514  Gyration_radius:  2.54370839387 Dipole_moment: 5.972
 S           0.20081406272596   -0.45831337997559    0.02414440017155
O          -0.92383736361779   -1.23159076349631    0.53613510322641
O           1.46023480567150   -1.15636166123436    0.05805311519676
O          -0.17292708937607   -0.12939312875060   -1.44475321471444
O           0.27847923818854    0.83758547082351    0.73560020477652
O          -2.80628515771001    0.13877978411196   -0.65729654492105
H          -2.19534474957817   -0.54194528380956   -0.28808033618585
H          -2.43283654168270    0.35534100849275   -1.51654873747955
O           2.80014626570139    1.34337625811142   -0.00801985563106
H           1.90645981549284    1.29748217014474    0.37686729122091
H           3.19926621382837    0.49197371190870    0.19375095330078
O           2.87247107885977   -1.70510675096544   -2.12926009003630
H           2.51660329842398   -2.50277475403040   -2.52275382954252
H           2.42068615425601   -1.60076033979445   -1.26596658205722
O          -2.01374038009038    1.59780420776952    1.27590503091453
H          -2.48498568588090    1.19465518654975    0.46773619077404
H          -2.19181660618311    0.85147159982077    2.05835624855549
H          -1.00273386865861    1.40779496104123    1.06010431869973
O           1.92969005131246    0.79475644163286   -2.46634988745422
H           0.65635661727920    0.28143949369219   -1.90505206196071
H           2.35427652344179    1.19899525338067   -1.67439258314540
H           2.41313570278313   -0.04447730499503   -2.60551397010527
N          -2.22435406930157   -0.36204299426987    2.83564907532324
H          -1.72524650643946   -0.94474075695622    2.15341327988927
H          -3.13515079375510   -0.76707035452656    3.00833486651156
H          -1.69936100568085   -0.34687809467192    3.69993762468162
