    26
        -50.47220448  Gyration_radius:  2.4199192922 Dipole_moment: 2.805
 S           1.54683683863319    0.28089728381340   -0.69669030502916
O           0.64806186852801   -0.61103308454860   -1.42313494363662
O           1.56069055525073    1.61065804979329   -1.25389539493205
O           1.30352549550325    0.25023475975101    0.73336152648170
O           3.00818304793102   -0.30892648282435   -0.89038524387959
H           3.28461517076784    0.13299542790681   -1.68551336746891
O          -0.78577139242941    1.35071275020674    1.84973521772730
H           0.02177366442933    0.92314733227311    1.48139502128479
H          -0.58289008474197    1.56446593531257    2.76171058072281
O           2.09443776340300   -2.22961090149587    1.36008953272946
H           1.88053735218767   -1.28639866296204    1.25009016385841
H           2.83378126831630   -2.39701721989545    0.77335623587771
O          -2.40362372823329   -0.66701993601437    0.85870319538694
H          -1.96083466960046    0.00141128657936    1.40892988492106
H          -1.77405571541666   -1.42413356750287    0.79008212655596
O          -0.46095875771932   -2.39916744348513    0.30217164616796
H           0.27512681010686   -2.60185112418082    0.90028664401076
H          -0.05345250080873   -1.87184475555320   -0.40592207390129
O          -0.80204487592691    2.68455356876266   -0.59893692524629
H           0.11627323355225    2.47108164617149   -0.86360555974261
H          -0.85478773264972    2.50425366395929    0.35335156210839
N          -1.80455070362025    0.40431450253447   -1.43127056733476
H          -2.20800859561322   -0.05345433974943   -0.53782378444820
H          -2.42695690422154    0.31504948527468   -2.22593707414166
H          -1.57306560586600    1.41620345976028   -1.20417376311242
H          -0.88284180163632   -0.05952164383964   -1.60597433497358
