    26
        -50.46978693  Gyration_radius:  2.50707064077 Dipole_moment: 2.219
 S           0.12892351978445   -1.93579986754230   -0.92297887053372
O          -0.81667653687160   -1.20561549546689   -1.75078539566947
O           1.50300488807122   -1.71860356222741   -1.31804649211606
O          -0.08867852085415   -1.70554863805822    0.50159647319838
O          -0.16458403562857   -3.47636464440451   -1.14406070332237
H           0.25504789730177   -3.64303851367783   -1.98137171784742
O           2.34105470025115    0.74820775269561   -0.82611777965267
H           2.22884320460412   -0.18124985551099   -1.11879211139444
H           1.58383225921644    1.21210388028663   -1.22392329023109
O          -0.19426897397077    1.90007924009655    2.56910395434292
H          -0.75556280273496    2.03749432401646    1.75206558490013
H          -0.80282105963356    1.60585462275482    3.24880219837766
O          -0.13861401741887    1.31028182141166   -1.82079662641646
H          -0.36914537506086    1.65413308053313   -2.68548072420692
H          -0.40456190139317    0.35663838026542   -1.82320345760490
O          -2.52927895661913   -0.61609048828208    0.33533104444500
H          -2.58183110500797   -0.76385867558808   -0.61489645702631
H          -1.71383331658720   -1.08296692104312    0.58996819228749
O          -1.65620060151604    1.93852229089050    0.41998723326506
H          -1.09732736243985    1.89459470003066   -0.37235361404346
H          -2.11075745879623    1.06911579865983    0.45901184091613
N           1.48990544761114    0.12157842877129    1.56909981628941
H           0.87359839821641    0.85471152460653    2.02623912287383
H           0.88293883326250   -0.67334511673925    1.24266702803613
H           1.93636733584349    0.51037506910007    0.67785670805248
H           2.20062556036480   -0.21120913557864    2.21107804308066
