    26
        -50.46809664  Gyration_radius:  2.53143502669 Dipole_moment: 3.076
 S          -0.42713219476034   -1.60049433210110   -1.15793401294018
O          -1.78654464007016   -1.53172887197388   -0.65827804934200
O          -0.20673983098347   -0.64289516830599   -2.23469527586651
O           0.56125163518681   -1.49554796095319   -0.10020989439552
O          -0.22724985356044   -3.03435779865605   -1.79584514191897
H          -0.78463869284881   -3.01451971478957   -2.56768803470572
O           2.81121057765633    0.08032115683865    0.44334131663536
H           2.26005516764816   -0.70994694634329    0.36012035188313
H           2.59325970789243    0.60309211266016   -0.34875027462144
O           1.80549467389708    1.67850141965505    2.28655569333735
H           2.31359668819459    1.05173510334179    1.70742516297205
H           2.17403851850509    2.54745618145282    2.12310199264867
O           1.56763713576557    1.30619039290751   -1.65801410584006
H           0.97026533699196    2.05381100469880   -1.72655128225329
H           1.05710917319710    0.53573610860010   -1.96809634523427
O          -2.55533575386561   -0.87406884940499    1.80798314429552
H          -2.68764892791689   -1.67554003510475    2.31560793755015
H          -2.37687122723551   -1.16322379811323    0.88678243785299
O          -1.54944970800262    1.33616840980782   -1.09805118616257
H          -2.44985677887673    1.01916141241936   -0.99391024200373
H          -1.09929699153105    0.64580620108594   -1.63077708462154
N          -0.39138835204087    0.60123404289225    1.22438117034534
H          -0.79843219798766    1.12910932139079    0.42114145252212
H          -1.17181795748488    0.24605881901293    1.80316118694808
H           0.07185734689700   -0.24090315302422    0.80434372970902
H           0.32662714533312    1.14884494200603    1.75485534320722
