    26
        -50.46880255  Gyration_radius:  2.45552357373 Dipole_moment: 4.097
 S           0.88732719036398   -1.33616942681495   -1.08790701593476
O           0.89964043206568    0.10193198974491   -1.26480533456525
O           1.91117613557337   -1.83049104761032   -0.19838028831929
O          -0.44901131189406   -1.79921664713210   -0.70159867927985
O           1.19184237017612   -1.98277260669483   -2.50099056545562
H           1.80360227125264   -2.66582701193725   -2.24864202240333
O           2.28601527899705    1.76519460408158    0.38618064092611
H           2.00785319472709    1.15856082079530   -0.32204014202518
H           1.63109379051308    2.47003468606064    0.37844353343636
O           1.86342128667130   -0.32252276085419    2.00933575418001
H           2.08051727240579   -0.97018685499710    1.30964060846819
H           2.12400581070051    0.54045472728435    1.62109322952032
O          -0.38742114750582    2.39412898584867   -0.69164015736457
H          -0.84286773937078    2.71644469431448   -1.47119105840927
H           0.02337058381296    1.54744461180581   -0.95858987931033
O          -2.48601232358288   -0.22134636259981   -1.36969137324926
H          -1.69847446821539   -0.78470733143830   -1.21614403745794
H          -3.14514637939029   -0.78938342649490   -1.77023110438519
O          -2.19527019765496    1.21999013450547    0.90905145161445
H          -1.55302040592457    1.83866320312619    0.50390411669438
H          -2.55908824074477    0.74584815100075    0.13730106247612
N          -0.68905661688361   -0.76381373094869    1.73212288589077
H          -1.29793159641247    0.09517670968000    1.53330410198478
H          -1.08983601204028   -1.32704737423788    2.47452236720562
H          -0.64122381625955   -1.30647477744409    0.83713559399943
H           0.32449464862455   -0.49391396903770    1.96981630176638
