    26
        -50.46836253  Gyration_radius:  2.53793432985 Dipole_moment: 1.230
 S          -0.12978267132787   -1.86089324442489   -0.45003946979102
O           0.61697542075315   -1.51543791413247    0.75555895325585
O          -1.45079383985856   -2.37295111717117   -0.14808637547541
O          -0.13033738069301   -0.76314387057506   -1.39714930528620
O           0.64766004063812   -3.05433013697477   -1.14037769554861
H           0.26735053402426   -3.80613534621882   -0.69887083670824
O          -0.61020419925454    0.47978559417399    2.05887797635697
H          -0.12246949826686   -0.32630068299510    1.80183983534342
H          -1.53142293502427    0.30078435217530    1.80779446426666
O           2.93996601780067   -0.27372260559726    0.49896849496983
H           2.08551114165407   -0.75821352344551    0.52617578269398
H           3.33195610243994   -0.39706770730073    1.36536931308556
O           2.74873552552510    2.25008076064047   -0.37833003718262
H           2.91778402860431    1.34635609714040   -0.02637954150534
H           3.18732551364040    2.28770274532275   -1.22952315759545
O          -2.84502758082867   -0.33317403960043    0.67000144237282
H          -2.35332780797206   -1.12775376543572    0.34293409622673
H          -3.71375090844502   -0.64693669728977    0.92723263968208
O          -2.20369537285858    1.30732674728259   -1.49267098966549
H          -2.62106635516886    0.86743394359705   -0.73447437767690
H          -1.71917442551058    0.60429436811530   -1.94080637844420
N           0.14940767524573    1.59578857076138   -0.22175243659082
H           1.06324062664366    2.08867023491942   -0.30048270689772
H           0.21221747009747    0.66745479712767   -0.71047612411373
H          -0.08835150211939    1.36982468819136    0.78190335898515
H          -0.64872562974358    2.07055775170665   -0.66723691476000
