    26
        -50.46061518  Gyration_radius:  2.54369488565 Dipole_moment: 5.967
 S           0.22274152822499   -0.30213044403835    0.33153460548867
O           1.51304409024463    0.35747938969446    0.48926245681735
O          -0.16469467468360   -0.30178900565817   -1.09739036276471
O           0.16485435848517   -1.62664770617069    0.89443844607715
O          -0.79105313950417    0.61812441669450    1.06009339745584
O           0.64561998288018    2.80654146323217    0.18046432931237
H          -0.20761768186034    2.81392940026434    0.62382953909511
H           1.06457500927161    1.96050397836714    0.46638320744998
O          -2.01662280966789   -2.21526188958038   -0.82013505210065
H          -1.51034845968637   -2.85264798190162   -0.30793825310837
H          -1.36597208086363   -1.54604510204928   -1.09882040969999
O          -1.50095435152164   -2.29420659862239    2.85921015921434
H          -0.81610198559170   -2.15407479174150    2.17251371593282
H          -1.10501245052276   -2.02791202596757    3.68997011716459
O          -2.91483352086385   -0.71958241940084    1.19425621000785
H          -1.69575173448992    0.12126082057836    1.11777124168110
H          -2.82924235204005   -1.27758557688739    0.38665566852078
H          -2.67397555504252   -1.31405103091327    1.93322458884241
O           0.65566157155511    1.78077671161583   -2.15224913269654
H           0.21651399033413    0.88947125504293   -1.80847869041576
H           0.57827883538449    2.38653456909912   -1.33677125118983
H           1.71322112521592    1.49531518993557   -2.14331120140454
N           3.00413997115245    0.96544831132162   -1.77894628538471
H           3.75105351907651    1.63554336210825   -1.65063203270312
H           3.34171396342925    0.19753717163198   -2.34394214363234
H           2.72076286110052    0.60346856334481   -0.86099286796537
