    26
        -50.47250217  Gyration_radius:  2.48728246457 Dipole_moment: 2.864
 S           0.40024263605785   -2.21742223742387   -0.25985945367993
O           0.34389423265627   -2.23195887215415    1.19667837412541
O          -0.90778521701303   -2.40759263161782   -0.85733701171436
O           1.10248627006893   -1.05231398652278   -0.76304414396902
O           1.26525674274649   -3.47313184990665   -0.68969831184745
H           0.66656300083499   -4.18449529971971   -0.48983341384072
O           0.33349123432111    2.64860225117109   -0.68151758834625
H           0.38674760909137    3.46997177877954   -1.17040041681613
H           0.10138753435945    1.93740370465514   -1.34686258150699
O           2.31907866148508    1.06438042967626    0.38918943345479
H           1.77248445121036    1.77055324808866   -0.00147247820958
H           2.12673915083494    0.27440229137413   -0.14910425911951
O          -0.31615412923094    0.66409706053960   -2.23876348455461
H          -1.20519735004620    0.42194662806386   -1.94070630593902
H           0.26437718741930   -0.02551616850286   -1.85846561597651
O          -2.38994435706153   -0.29945053024435   -0.65012716953329
H          -1.84354562831623   -1.12713232295973   -0.70086895872954
H          -3.30393651894296   -0.58380899742861   -0.69625635915402
O          -1.40827074943270    1.52527939370906    1.13220354841496
H          -0.87689454452648    2.09270283880371    0.54492560184179
H          -1.85311590068535    0.88881292327166    0.54098615235381
N           0.60654362440595    0.17145873321409    2.17142102613762
H          -0.26655995180523    0.70756867256682    1.89059224157017
H           0.49661658209355   -0.83431913167271    1.85130714504394
H           1.41160557300589    0.58041070082376    1.60733706323317
H           0.77388985645823    0.21955135341454    3.16967696675901
