    26
        -50.45757819  Gyration_radius:  2.55678893367 Dipole_moment: 3.355
 S           0.23387325094354    0.50032482719893   -0.21060199311637
O           0.45594972815055    1.13179155981962   -1.48884563869494
O          -1.23662486275088    0.09253576011559   -0.08616093730169
O           1.03268365634716   -0.78601692630571   -0.17453111662707
O           0.54829987776356    1.31693068457151    0.93359494722176
O          -1.71541429473240    1.76054982739695   -2.98774204487258
H          -2.13816577784142    2.53716309294431   -2.61892858405814
H          -0.85215946070713    1.67564125358397   -2.54367891980847
O           2.62154896605585    0.65255256631774    2.50800775459452
H           3.43225449908097    0.88444466784306    2.05243404112887
H           1.89210450329990    1.05885073318521    2.00002612340089
O           0.63036636621868   -1.16926603377906   -2.90146140628745
H           0.75238265580594   -0.25946958678460   -2.58019684254398
H           1.07594339896163   -1.72488785125103   -2.25638059403032
O          -1.93727443654899   -0.82948117730607   -2.29329302543036
H          -2.10983437429224    0.02152254564917   -2.74408309035873
H          -1.07849838994551   -1.14090576295054   -2.66487432728281
H          -1.57173049225621   -0.34259282377758   -0.98705659882161
O           1.22496134645864   -1.57122732881353    2.13225951278282
H           1.89508066057854   -0.92362764522526    2.45199736229263
H           0.34792839607059   -1.23216442284344    2.50446148271228
H           1.12259073878612   -1.20845446359894    0.87206373068283
N          -0.96507581236981   -0.30335154716047    2.78343338900115
H          -1.80073080106010   -0.64525800378568    2.32606291644897
H          -0.64819977658119    0.50709377346940    2.25571843572103
H          -1.21225954544424   -0.00269773851581    3.71777542324231
