    26
        -50.46896852  Gyration_radius:  2.54044503772 Dipole_moment: 0.623
 S          -0.60870276292149    0.15850039488331   -1.91047325104230
O           0.25323823282772   -0.92475904862209   -2.32105055665012
O          -1.55553298962281   -0.25946314218373   -0.87872102704207
O           0.11897385561037    1.35238560697388   -1.50913231683336
O          -1.46404669924600    0.57436014318736   -3.17326966859037
H          -1.73729724253760   -0.27165743082427   -3.51246063692421
O           2.14146544845929   -1.70616595070513   -0.56884696866827
H           2.62233285777161   -0.85903117492578   -0.61752069204439
H           1.52800303964306   -1.66140929768489   -1.32728467554526
O           2.70985446901780    0.92639042332718   -1.00158146078714
H           3.23755512316638    1.10289706222660   -1.78170071571856
H           1.78142154178052    1.10202618816375   -1.26030762501759
O           0.40930775683405    1.81245490954980    1.07407256907781
H           0.21443073609003    1.77245138698836    0.11089994492339
H           1.26591264782922    2.23902370146097    1.14477830439516
O          -1.55161826372195   -1.32532735728130    3.00176739848159
H          -1.92672187813223   -0.50464425558365    2.60795443991037
H          -2.29004502674258   -1.91870049090206    3.14049903226191
O          -2.28267604374563    0.83339113089077    1.55526833351483
H          -2.24665777886254    0.49841227262416    0.64386826485518
H          -1.55789838715667    1.46516051047622    1.62438282240704
N           0.20307469089353   -0.90552255721525    1.01107232161812
H           0.44926142121923    0.07367460767941    1.26049290586488
H          -0.21834591245317   -1.36293924596131    1.83906682961773
H          -0.53335983551758   -0.82173419158708    0.27163498625525
H           1.03807102952108   -1.38977419495159    0.57659144168204
