    26
        -50.47063350  Gyration_radius:  2.42987964367 Dipole_moment: 2.926
 S           0.28090736046973    1.24197546881175   -1.32392778553402
O          -0.52895748106078    0.19018327691361   -1.91170412681460
O          -0.45340405906476    1.99633675992005   -0.31283522816034
O           1.55808860777079    0.77299203197882   -0.82790030648604
O           0.60765842595294    2.25115152518087   -2.49396002468117
H          -0.24708753615131    2.36704892928722   -2.89416976190504
O           2.30582353110573   -1.77517510945829   -0.54822944375772
H           2.79770664809598   -2.12122012771377   -1.29392350291296
H           2.06765103516814   -0.85200531484713   -0.77543060894659
O          -1.99354927457132   -1.16893716907202    1.33251646699826
H          -2.54874004559017   -0.63269785265219    0.72765954437601
H          -1.46414652242628   -1.73663348273410    0.72502167545924
O           2.26789328746219    0.02683269765332    1.68532421816600
H           2.24066649493282    0.50204326069361    0.83566572235410
H           2.45865192464546   -0.88602566120795    1.44000168155870
O          -0.42444106536674   -2.17214615447250   -0.55411516600111
H           0.53127542923985   -2.27719687211543   -0.42508305299121
H          -0.51575453664495   -1.42125128639908   -1.16568535146220
O          -2.80833076132329    0.59773575007530   -0.54297094460436
H          -2.44627712749232    1.43989326316492   -0.24639743666461
H          -2.15367830102648    0.28737346583774   -1.19284931157702
N          -0.30483899522588    0.68009399342294    1.97744848530019
H          -0.35988199868729    1.29612396380764    1.12595124913634
H          -1.00324111667341   -0.14152835786520    1.81215726583229
H           0.68531964798662    0.33275250747467    2.03546162567421
H          -0.54931357121281    1.20228050431294    2.81197412782471
