    26
        -50.46516758  Gyration_radius:  2.53866592193 Dipole_moment: 5.802
 S          -0.45093833116859    0.32639674214031   -0.27592464415034
O          -0.46047494015127   -0.09421227398571    1.22837532878163
O          -0.82467156099268    1.71246848264191   -0.39061907589955
O           0.88978044809740    0.05160293543672   -0.78484465425066
O          -1.42502731345824   -0.59507876496152   -0.88310143528303
O           1.94354818213440    2.31969675040229    0.12637418486387
H           1.70596559624446    1.47121108965941   -0.29407757288729
H           1.30825039016662    2.95407619915352   -0.21710838545035
O          -1.24249261661088    3.31914077607147    1.68609862837504
H          -2.17337693857927    3.28855901234632    1.90979982005780
H          -1.14539441752758    2.81314635341946    0.85227445311136
O          -0.40095001561770   -1.91476373478051   -3.00643901811471
H          -0.86523409812849   -1.38973149966411   -2.32457371536706
H          -0.15733789288654   -1.29468789815211   -3.69538557264524
O           0.78726376626763    1.71907931969987    2.44499285084897
H           1.41675629418536    1.98853762385531    1.73548480647462
H           0.10210018868098    2.41695393571023    2.44262771012592
H           0.06122537214769    0.61543560236892    1.77173667846488
O           1.44373966486968   -2.48894830656383   -1.13889199286905
H           0.32507259183365   -2.76178871434786   -0.18920902838530
H           0.97005500672301   -2.54327388002942   -1.99405568674498
H           1.49015036026820   -1.51684501536917   -0.98218684441618
N          -0.61042030833354   -2.67144672004580    0.38516462554425
H          -0.41842022491371   -2.32860849882709    1.32510027404177
H          -1.15387487172314   -3.52861180047165    0.39569212378744
H          -1.11529433152890   -1.86830769570630   -0.12730385801725
