    26
        -50.45757823  Gyration_radius:  2.55677910411 Dipole_moment: 3.357
 S           0.09007050155281   -0.54397854974040    0.21332787863341
O          -0.72477177153168   -0.31813621104205   -1.04327163788241
O           1.44530010600746   -0.89552911393444   -0.12536138850973
O           0.13892093132746    0.80392449692795    0.93772870907705
O          -0.60315334391064   -1.50969391813896    1.03115559549618
O          -1.17562262663693   -0.82443601955444    3.59248264299209
H          -0.97506629673549   -1.24773963017641    2.73798627805830
H          -0.37595415553455   -0.87485789091994    4.11766593027210
O           2.07144120711168   -1.46254278320476   -2.67593393142175
H           1.98793931736073   -1.35367218267553   -1.70826463269187
H           1.73775548387971   -2.33732731084104   -2.88082082787269
O          -3.09422891628379   -0.68750887513559    0.36876111063560
H          -2.32453392131584   -1.22765857697286    0.61705255064993
H          -2.95123630859005   -0.45596630069446   -0.55284067277171
O           0.65676565909255    0.78079275573083   -2.73400238509470
H           1.26271979968041    1.32565650583355   -2.13508957655345
H           1.20518235903761    0.00702423142695   -3.00077133285584
H          -0.13659414029636    0.21901050302458   -1.84789436500902
O          -2.08578662374078    1.14990248231933    2.00700667938524
H          -2.67294778397654    0.60117222795611    1.43532861926285
H          -1.93561545804757    0.60493310040626    2.80553365379261
H          -0.79698717870465    1.01647346446983    1.37610320039007
N           2.18913636451637    1.79186598988863   -0.87467570601654
H           3.14723012107849    2.09156025303803   -1.00401822168226
H           2.19258851594753    0.89436910066634   -0.39487355987444
H           1.72744815871434    2.45236227133750   -0.26231460041060
