    26
        -50.47074698  Gyration_radius:  2.49905834602 Dipole_moment: 1.696
 S           0.62609223375438   -0.50161950866096   -1.80516303378123
O          -0.28275349339715    0.63222566994567   -1.80854153616417
O           1.78856701843762   -0.24740048939118   -0.95589694575384
O          -0.02003202647811   -1.75735657873286   -1.50514632722165
O           1.17961506564113   -0.63304925676122   -3.28224314287767
H           1.56602481635207    0.22196133199787   -3.44133280842590
O           1.01495597720896   -1.76844149725407    1.03535393274344
H           0.49440086211199   -2.36688458143421    0.48755012729378
H           1.49125147303528   -1.22200500042724    0.37332237346092
O           1.12334876757050    2.21973750751380    2.19315529995832
H           2.01778447458667    2.07908394593158    2.50770786304640
H           1.20628610414649    2.38173377875634    1.21752060298293
O           1.38656893857182    2.30206521107295   -0.42753626271525
H           0.54347355109486    2.31705297843572   -0.89520401106399
H           1.70890478373922    1.38967000845036   -0.58047312105219
O          -2.47185363566952   -2.07010126875765   -0.55905804758785
H          -1.56620078499605   -2.02654580769940   -0.93583354499421
H          -3.03698628466799   -2.37792185604654   -1.26903942532850
O          -2.14211864385488    0.51474475358015    0.07410359789410
H          -1.52065055167699    0.67066516330122   -0.66923798036859
H          -2.48869074665223   -0.38625903353887   -0.09055626286600
N          -0.52903847195228    0.12273580378849    2.09034776853792
H          -1.00893122539592   -0.11048042719265    2.95249419871152
H           0.07002794203679   -0.68488042313934    1.76043508465790
H          -1.24001607273897    0.33734554196942    1.30999132642328
H           0.08996991915266    0.96392402427561    2.22328027449832
