    26
        -50.46896881  Gyration_radius:  2.54030139781 Dipole_moment: 0.606
 S           0.81267447682885   -0.34647738445624   -1.80678119835820
O          -0.18979439670991   -1.33862696567118   -2.11577057579910
O           0.28178056125450    1.00609912588209   -1.73920050055230
O           1.56062211170352   -0.68586743476672   -0.59796026352078
O           1.85002442358843   -0.34664299112369   -2.99962970916146
H           2.00499202452228   -1.27698215105295   -3.12614869319565
O           2.23301140722553    0.76248586741113    1.65975826259358
H           2.22578851964100    0.25332550890848    0.83219190639795
H           1.63382381553236    1.50259730280267    1.50977623424401
O           0.97330122570000   -0.89413501282932    3.37833165620437
H           1.53179167534765   -0.24738420500950    2.88920593815911
H           1.57152705786908   -1.55337966878757    3.73061917487621
O          -2.38095682744939    1.11597775760105   -1.51302045802244
H          -1.41499485258651    1.08258503201897   -1.67268219478574
H          -2.78679519500035    1.20624742653878   -2.37633924792411
O          -2.35413507834810   -1.42287230147692   -0.51703319651792
H          -2.66322361226566   -0.53882618695289   -0.78962546180034
H          -1.67132003229767   -1.63799150963986   -1.18104451561573
O          -0.16905876846293    2.04019516024295    0.64708476381782
H           0.10743925303387    1.76753222996785   -0.25654935630181
H          -0.93201434576773    2.60837206694324    0.52133148640579
N          -0.46629506662602   -0.62807299682211    1.12582160597423
H          -0.55113427880476    0.40808557726272    1.15028411170760
H          -1.32918989179545   -1.05255002475859    0.68328194852425
H           0.34249481838494   -0.82095822621394    0.48961381461186
H          -0.22035902450851   -0.96273597602412    2.07448446803791
