    26
        -50.46858688  Gyration_radius:  2.53224870808 Dipole_moment: 1.624
 S           1.29452638402658   -1.45834995837570   -0.54002009554460
O          -0.08054295531285   -1.50591324921036   -1.03656707002105
O           1.89002156051522   -0.15368965856033   -0.83819831472672
O           1.41293610752648   -1.82039299526291    0.84255781452848
O           2.10446416016894   -2.51603507877658   -1.38947879787445
H           1.89165906508887   -2.27458820414727   -2.28533511169427
O          -3.58747278803915    0.31958267833112   -0.29005016461492
H          -4.27021315115113   -0.32714377817054   -0.46986827231484
H          -3.04549609722085    0.38506314149909   -1.10915486134614
O          -1.72111854290042    0.35058143298829   -2.24091345714302
H          -1.17532084718860    1.12615749129844   -2.06783546067319
H          -1.17581543552084   -0.41171670928672   -1.98232777904812
O           0.24348617814110    1.90005720657814   -0.78079719600412
H           0.88284767935011    1.16686706761160   -0.93656326182737
H           0.75036701924284    2.58781484009130   -0.34320165840355
O           2.31881236639881    1.17595789081494    1.44834913226293
H           3.20154659201263    1.00155851798812    1.77812393706635
H           2.23162065797366    0.64584407793971    0.62909147575439
O           0.46167517475540   -0.26546188946343    2.83799275361722
H           0.81036173028462   -1.06100788201699    2.39923948016909
H           1.10928735646655    0.42285259750072    2.59457257766057
N          -1.12957170186823    0.14478054232021    0.78261614561361
H          -0.73515797352109    0.99817174791823    0.33401175612367
H          -2.16409084632750    0.19793352700047    0.74071891161452
H          -0.81547899190981   -0.64869449846283    0.17988637290165
H          -0.70333270092165    0.01977114173189    1.74315115408934
