    26
        -50.46692905  Gyration_radius:  2.49819809034 Dipole_moment: 3.148
 S          -1.20050754087101   -0.49526393426960   -1.64544178709681
O          -0.78808513148650    0.66457680661326   -2.39407149350091
O          -0.18492802563092   -1.54038910327760   -1.62301546103417
O          -1.68025524692623   -0.21381521422942   -0.29623115755721
O          -2.45819981030159   -1.09750794194222   -2.40313631076972
H          -2.25112763543519   -0.95442652039558   -3.32137105860454
O           1.23760508199926    1.98046570859359    0.77965993152406
H           0.39014858596174    2.30432602938696    0.40308034787492
H           1.57159188858732    1.33460013491632    0.13316072863038
O           0.50355242156306    0.87713650634487    3.00441912594209
H           0.89561680003383    1.33581905985050    2.20349948035105
H          -0.13696514421765    1.49389384493850    3.36249305173505
O           1.79746893699968    0.20145513228996   -1.25118790414362
H           1.83340959351000    0.82724443410166   -1.97795381812988
H           1.05132430013225   -0.38967381560189   -1.46662803604295
O           1.57971958205849   -2.33809358804812    0.24046560006477
H           0.98086153946767   -2.31085975908220   -0.53008098016665
H           2.25357088625454   -1.67741181062447    0.04775214315429
O          -1.15721363138353    2.41624143845466   -0.37440461004900
H          -1.57966720891063    1.59041662973391   -0.09198487489260
H          -0.95449318228421    2.23234542474396   -1.30301169996894
N          -0.34792209931256   -1.26044043042489    1.71887180751980
H          -0.93948068548444   -0.88064809980732    0.92946121402490
H           0.48524707477286   -1.73446718609431    1.27021690205394
H          -0.02065336769144   -0.44157675406101    2.31470524783915
H          -0.88061798139822   -1.92394699211077    2.27073363123620
