    26
        -50.46810413  Gyration_radius:  2.56204741764 Dipole_moment: 3.959
 S          -0.02260795756861   -0.97693878108374   -1.87354711309138
O           1.41476637016488   -0.81705038104849   -1.78591065576044
O          -0.55840586122193   -1.56988445682623   -0.64358016057867
O          -0.71456664202315    0.23138604889759   -2.25863280302368
O          -0.31384889498057   -2.03223379585903   -3.01792335388376
H           0.09866497164673   -2.83607804497223   -2.71503880624475
O           3.08913924587931   -1.29203221641517    0.22105357289470
H           2.53261426404245   -1.19728836804669   -0.58235091799442
H           3.98268397747342   -1.07218791693196   -0.04491297079962
O          -0.65893748109432    0.56811360785253    3.22870198426055
H          -1.09164599603759    1.21084301468700    2.60848594606703
H          -1.36454807888435    0.01627336204109    3.56909197472233
O           0.50946553979437    1.86389918872389   -0.63042169695079
H           1.27091543908887    2.20304028654873   -1.10416155854106
H           0.00918807140348    1.32425051467395   -1.28919104844616
O          -2.69610028572860    0.03630630907312   -0.34448740528320
H          -2.58940650986914    0.42254389267023   -1.22051079603277
H          -2.04684815266186   -0.68868058966077   -0.33509124045302
O          -1.68199914702901    1.96878411929220    1.24492262192890
H          -2.18428782321968    1.29740831403863    0.73335918194222
H          -0.98916145574736    2.27547333046464    0.64942394231080
N           0.81219449270789   -0.18989390869110    1.14588163054355
H           0.82233372747166    0.69493857444183    0.59757571350907
H           0.23734636644905   -0.85709611881692    0.57643396717586
H           1.77000864996503   -0.57100389348518    1.19137894536997
H           0.36304317997405   -0.01289208156728    2.07945103635502
