    26
        -50.45757822  Gyration_radius:  2.55679516812 Dipole_moment: 3.355
 S          -0.23562226375720   -0.54218877756611    0.00059203796417
O          -0.97046418443859   -0.66880456486279   -1.23183170348005
O          -0.35921299995026   -1.66290874650006    0.90099345647127
O           1.23617002377988   -0.32570861296744   -0.28411721709196
O          -0.72776157938090    0.73148624635845    0.69306191662944
O          -1.73248499285074   -1.28900984279455    3.21015497382523
H          -2.67099374934836   -1.27146717940108    3.01842182978482
H          -1.28881866931580   -1.60447198219218    2.40194547077548
O           1.90427054783616   -1.14550597665620    2.29004973300468
H           2.46181104029705   -0.81736455891783    1.57949699094385
H           1.16299069733633   -1.59142023614893    1.84561644513432
O           0.36189946607523   -0.91976830686918   -3.55154519294347
H          -0.25688200324997   -0.90765488340249   -2.79514301648109
H           0.70846657734174   -1.81174322822167   -3.60494688578123
O           0.10745980000134    0.66689662754560    3.04048501048091
H          -0.58321078237273    0.08147013748714    3.41123322522694
H           0.90474924133767    0.09249570908161    2.95609422287936
H          -0.36570050839048    0.77137948529035    1.68333115734913
O           1.49295145037355    1.09875544040905   -2.25390595753292
H           0.66308913766780    1.66971414995581   -2.16415309702651
H           1.40794237611064    0.35631781000424   -1.17122483727978
H           1.26221469435815    0.43588109975840   -2.94526737561923
N          -0.86317982991520    2.15113272127950   -1.84289821851681
H          -1.43880014265919    2.59288077834068   -2.54858726294421
H          -0.94170507057094    2.68459667066389   -0.98636494917788
H          -1.23917825631076    1.22501001030519   -1.65149076658476
