    26
        -50.46886662  Gyration_radius:  2.57357576526 Dipole_moment: 1.148
 S          -0.26247387236096   -0.74451910219583    1.72558076909077
O          -1.56902374451635   -0.18536095475858    1.48171616631959
O          -0.06449261463621   -2.04410200032933    1.09473317299399
O           0.81492854711432    0.17724095383529    1.38002724643169
O          -0.16754529734893   -0.98679443993187    3.28836629568328
H           0.65987003202171   -1.43957817119075    3.42698731096715
O           2.45375532065898   -1.67779240967326    0.27306780884708
H           1.59317780136854   -2.09180772777873    0.46917685244766
H           2.38777888776507   -0.82566254046605    0.72520399426853
O           2.30760779469750   -0.85056201120764   -2.26310960785353
H           2.51286210618835   -1.21013264575768   -1.36674295058378
H           2.16917792013500   -1.61007648594886   -2.83075690113952
O          -1.65772606058321   -1.49290120385961   -0.95373844544916
H          -1.10855963376630   -1.92952610822137   -0.27225992967647
H          -2.37537825759041   -1.09411555638849   -0.45214149609958
O          -0.82622757892164    2.92980174769073   -1.40046887500465
H          -1.27575024334652    2.80131606399733   -0.53334850801520
H          -0.23790784782556    3.67728734750937   -1.28307634855006
O          -1.85513193000482    2.40241267592231    1.00504686301511
H          -2.77491961223535    2.55785384290481    1.22629919374514
H          -1.68390449731795    1.46155844984388    1.22944007602625
N           0.19486246123705    0.44701802878159   -1.21247728665683
H           0.99725832389859    0.10511254326611   -1.78705252672651
H           0.49239338499769    0.46704109106501   -0.21032351605059
H          -0.13508007549961    1.40153050258764   -1.47928906109511
H          -0.58955130414609   -0.24524187967044   -1.28086029695071
