    26
        -50.45198895  Gyration_radius:  2.6044169569 Dipole_moment: 2.749
 S          -0.70013762678883   -0.13673152489101    0.01706570271479
O          -1.77794537681484   -0.41155409113502   -0.99562388377651
O          -0.95994176994502    1.08687814613850    0.74160848527113
O          -0.80585523797208   -1.32369058328319    0.98173580165552
O           0.59984673055666   -0.15058306642781   -0.62140091723149
O           0.77960266040601    1.09438987240063   -2.96750046010621
H           1.16372412718639    0.47499826411128   -3.59052524829599
H           0.84858216168244    0.67704232121042   -2.08425036568180
O           2.30381468076024   -0.39412633200878    1.50881760035288
H           2.34716236957584   -1.37425265062192    1.51627573737143
H           1.87898820006543   -0.17859327059436    0.66308697945746
O          -1.89761612849020    3.11811964838137   -0.69645078895421
H          -2.72857971257691    3.37911221973321   -0.29524082866136
H          -1.48895863282927    2.46768226263482   -0.08813057335532
O          -1.81414283260849    1.38394429285964   -2.66488113784931
H          -0.86594758773290    1.38018264104731   -2.95571034991238
H          -1.84681623952291    0.37956719969863   -1.79653679978112
H          -1.90868625830713    2.17295801370956   -2.07043380121135
O           0.15306695041307   -0.10839021399373    2.93734832095162
H          -0.47306822369714   -0.93053812601982    1.88945403433411
H           1.08853995915104   -0.14931725576519    2.58130023618341
H          -0.20134171120523    0.74121952622097    2.64598896857854
N           1.72700963190207   -3.07469336246957    1.36431579362604
H           2.12608887723333   -3.68743761213379    0.66455131744008
H           0.77947451262335   -2.84814840301593    1.08000015603636
H           1.67313646693143   -3.58803790578998    2.23513602084847
