    26
        -50.46761835  Gyration_radius:  2.51374043076 Dipole_moment: 4.031
 S           0.54717640181264   -0.54327729947593   -1.68492719873364
O          -0.45935552495206   -0.51451001663568   -2.71532207506820
O           0.97495780011858    0.76132852260140   -1.21216192178367
O           0.17074019387256   -1.39381488222716   -0.55269613209783
O           1.81628821149762   -1.22298863926474   -2.34905889604836
H           1.45819120382911   -1.48492139031429   -3.19012196868900
O           2.85305053595250    0.72562313879914    0.63709736894048
H           2.17383722279406    0.67383109351944   -0.07209225010983
H           3.32069498891260    1.54913632456753    0.48701570575878
O           1.73813556541975    0.24727531098076    3.00352926661163
H           2.15521891943717   -0.55075188878270    3.33187729160218
H           2.22356299267854    0.48351429194628    2.17734170248850
O          -0.90422986179955    2.18854141426953    0.10527498323219
H          -1.65271637037663    1.84036915748833   -0.43358141145022
H          -0.12342148542066    1.98973975194489   -0.43937358274650
O          -2.40965691468404   -1.74287304912204    0.04812579634011
H          -1.47418759794707   -1.75536090495857   -0.23973025460997
H          -2.84791274144506   -2.44754797496298   -0.43073358079246
O          -2.48399441643221    0.65284673435535   -1.36102466823854
H          -1.83596449135995    0.31809826224787   -2.00626921477901
H          -2.71141901378669   -0.11407358054959   -0.81065886885644
N          -0.51660411440893    0.06325276029293    1.56967439842507
H          -1.36875319798996   -0.34396308988143    1.94406932899995
H          -0.16510235386725   -0.54773346358550    0.79198930401895
H          -0.71980511596470    1.01772926340134    1.11539909391019
H           0.24126917411232    0.15053015334507    2.28635779367561
