    26
        -50.47110263  Gyration_radius:  2.51913207603 Dipole_moment: 2.612
 S           1.09021378905554    1.29690958332625    1.13019576780701
O           0.80498953616941    1.27577380779896   -0.30655437132762
O          -0.13566950041094    1.08132517141234    1.88985237540171
O           2.16272900827379    0.41837839211346    1.50842470348547
O           1.56368131864193    2.77078845094884    1.44412586005399
H           0.87503873472157    3.29567576145425    1.04910555263174
O          -0.75434332397030   -1.50178420755251    1.40071718356876
H           0.09690959426884   -1.90610494795162    1.15999425513089
H          -0.53149536236314   -0.65509644393676    1.82913438694291
O          -2.51311564004114    1.83327672287612    0.94448197486063
H          -1.64559701459275    1.61688722564194    1.34931533419934
H          -3.14441887979946    1.83420963393605    1.66529801825995
O          -0.87498009651292   -1.18075756246014   -3.04871424595896
H          -0.83924800843147   -0.80367109675863   -3.92828045644844
H           0.05409851223848   -1.17003391636453   -2.70873019326554
O           1.50245638974855   -0.84844172978966   -1.90192486286201
H           1.41445066886129    0.01350840834995   -1.46192909877966
H           1.66972256379531   -1.47306057088003   -1.17929056158588
O           1.82563432814713   -2.00281455930397    0.60716292952052
H           2.49489476519624   -2.58757313534476    0.96622784159042
H           2.03301764557679   -1.10070700584664    0.95439262121386
N          -1.46034059271882   -0.04700123749991   -0.69543283113177
H          -0.58859742079507    0.53613607835617   -0.63174961374272
H          -1.34268756416807   -0.79119646265553    0.04476412254230
H          -2.24462768950645    0.56193407305715   -0.43377276549938
H          -1.51271577137265   -0.46656042293686   -1.64681391659221
