    26
        -50.47444085  Gyration_radius:  2.41412169347 Dipole_moment: 1.578
 S          -0.93880267438794   -0.96052288569187   -1.44127718195996
O          -0.99403952426352    0.41779126387020   -1.92028338387584
O           0.42201232965562   -1.47685069373042   -1.45612759622210
O          -1.60490033115476   -1.14414644980878   -0.17434831451436
O          -1.75286782764840   -1.81055906953923   -2.49931808370305
H          -1.36389288172082   -1.52643242976759   -3.31928215905884
O           1.80689196121893   -1.49155336647475    0.75099767474527
H           1.26686060485941   -1.51247753991318   -0.08017768823398
H           2.42463860241800   -2.22096101917326    0.68385646243748
O           2.02609033779003    1.26830069409813    0.64946428332177
H           1.93956768989085    1.34315759121922   -0.32956068224141
H           2.16323551956072    0.31952591406904    0.80832742156879
O           1.59418250936547    0.97954840536605   -1.96353482070044
H           1.81502834040270    0.04494595244305   -2.03963475942655
H           0.62021969214163    0.98477315976794   -2.02798497666872
O          -0.46387145650180   -1.13261983040461    2.23597272932022
H           0.42836443853515   -1.39784035656094    1.95393545213406
H          -1.01433788141390   -1.28396253926256    1.44126378761932
O          -2.30171539737151    1.48599173644933    0.07866649173861
H          -2.70523208565202    0.64407421933032    0.32006130747528
H          -1.84544834704384    1.27334400911020   -0.76425794848748
N          -0.30740200430549    1.46590672310922    1.83515256875338
H          -1.09060083484568    1.62306274052980    1.14071584876672
H          -0.39974800099216    0.45779149930165    2.16779314266577
H           0.63921685983316    1.52708634263518    1.34450419534192
H          -0.36344964836201    2.12262591902831    2.60507620919836
