    26
        -50.46854445  Gyration_radius:  2.52550774703 Dipole_moment: 1.466
 S           0.87348757380828    0.50389218641446   -1.58449949891889
O           1.08544986347868    1.07873542019489   -0.26061647652494
O           1.92813262217982   -0.41794742700760   -1.94780671280048
O          -0.46324966628709   -0.04470405012597   -1.71538529645549
O           0.94692740145795    1.70276773962984   -2.61581705603587
H           1.87387030646850    1.91600307349549   -2.61210266349851
O           1.87918309373267   -2.30361137083941   -0.15141537181987
H           2.45768352232611   -3.01067083894152   -0.44255105812202
H           1.93672365940030   -1.60111466920703   -0.84611769380315
O           2.10511612981283   -0.47076440300610    1.95768302381723
H           2.15058444142837   -1.26433955719873    1.40291432016409
H           2.13551260897154    0.26217847959039    1.33019633217429
O          -2.29866839482948    1.67626685399574   -0.90146024370856
H          -1.58325207069400    1.07915228874391   -1.21112608319779
H          -3.03819719723743    1.51892892503493   -1.49103630104461
O          -0.86009947019044   -2.14010605638658   -0.07095785810920
H           0.05662634082778   -2.46435271118479   -0.04289698021212
H          -0.88336242048350   -1.53539572225878   -0.83457488638547
O          -2.63670370828183    1.59976774446264    1.75492635366596
H          -2.61786002433632    1.64860049621110    0.77212512221775
H          -2.52308783361920    2.49925874949280    2.06550124236933
N          -0.52574342145642   -0.04626955522898    1.52004544379227
H          -0.00355446827003    0.51050537417351    0.79626334435615
H          -0.82003646807430   -0.94024697149909    1.03891804247782
H           0.17256202098357   -0.26002853435953    2.24353976206047
H          -1.34804444111873    0.50349455580465    1.84625118353864
