    26
        -50.46830135  Gyration_radius:  2.54280384144 Dipole_moment: 2.408
 S          -0.21352583202851   -0.81224680777398   -1.32415446179310
O          -0.74468292995336    0.45782589128269   -0.80422547554706
O           1.21512474176409   -0.91595067364717   -1.04561969281910
O          -0.97440848676986   -1.93395878244420   -0.83955951156367
O          -0.38328854561188   -0.75508991780823   -2.87935996941403
H           0.24158980692862   -0.05871051689022   -3.13786922224134
O           1.79667031784474    0.83578972685902   -2.85561967656872
H           2.55154349435578    0.59924664736540   -3.39808883579757
H           1.78321229346451    0.20110332443156   -2.10104888557901
O           0.51083070073374    0.03207746135238    3.01200007228602
H           1.16225250880597    0.32259616910777    2.30672616854360
H           0.80369395507236   -0.83767985230853    3.28759295636344
O           1.00564846109781    2.49413949952870   -0.62175765498273
H           0.26127507509298    1.86963153942864   -0.70534455841416
H           1.47867731102038    2.41786043773670   -1.45712371442806
O          -2.81329421382870   -2.09689588627694    1.02136813659442
H          -2.69952473542608   -2.96093656330991    1.42081333123239
H          -2.22116505411833   -2.08959134996887    0.23218557660516
O           2.06233801212548    0.60492577256711    1.01420547288844
H           1.81336736559800    1.45422953288655    0.59612200763500
H           1.85125928978592   -0.06440128198956    0.33699994103955
N          -1.71359446682178    0.25893433142046    1.60897374105031
H          -1.34730570804982    0.40882046176938    0.62106514882129
H          -0.87205082691388    0.17118156727367    2.25046877160459
H          -2.30314762961506    1.03624893910568    1.88669535046050
H          -2.25149491459650   -0.63914966965731    1.57455499403475
