    26
        -50.46475228  Gyration_radius:  2.57276931805 Dipole_moment: 1.907
 S          -0.48062291690865    0.67396221129317   -1.42533964724439
O          -0.82985034158405    1.58330853969274   -0.33440732861942
O           0.87566465108528    0.15216852200709   -1.22199327242404
O          -1.43778128595609   -0.39800509000398   -1.58096709856587
O          -0.47130331597497    1.49339090358274   -2.75146725530602
H           0.02740638281649    2.29849513474519   -2.50487792787884
O           2.28968916052231   -2.22419752536065   -1.30872071468334
H           1.85361218345130   -1.37578637527298   -1.49435808278516
H           2.79453545147442   -2.44275944673673   -2.09253177020186
O           0.65880283562440    0.11682139295288    3.07298466586969
H          -0.28472570742620    0.28488760810358    2.80934871062065
H           1.09001705496930    0.97269779428758    3.06015345532838
O           0.52939990625225    3.53158196008554   -1.39966353573458
H           0.00469995883778    4.33517899320143   -1.41995946191188
H           0.08375757546684    2.92536258399123   -0.76985219334522
O          -1.69014323473372    0.45886961414389    1.94018277303664
H          -1.99786917341302   -0.39968883715458    1.62380323415270
H          -1.45351163035504    0.96046707321691    1.13391231508751
O          -1.76345151698478   -1.96348262185178    0.44819322281199
H          -1.71135604493470   -1.37407869652512   -0.35176172517562
H          -2.25564008927846   -2.73786135885961    0.17132064493125
N           0.84789101314275   -1.39129619378757    0.90149479377902
H           1.57918097282549   -2.07572459512484    0.71082818835919
H           0.88609292383041   -0.68380012270441    0.11221202853249
H          -0.09388640082518   -1.82859330208375    0.84805529620738
H           0.94939157808080   -0.89191817583148    1.82341069517427
