    26
        -50.47612861  Gyration_radius:  2.47891318778 Dipole_moment: 2.433
 S          -0.15189846233769   -0.29261272553147    1.43182715334636
O          -0.96721734563177   -1.12139875715586    0.54975786556675
O           1.26102135721656   -0.64608706307158    1.32431190729396
O          -0.37598426328128    1.12306006617406    1.18496238785337
O          -0.60728104668665   -0.56223148593588    2.89679963429052
H          -0.25443799483376   -1.45580491243272    3.08126033792385
O          -2.66129665414739    0.99389636132515   -0.20552197308626
H          -2.78929100049630    0.04787146084695   -0.08811058833291
H          -1.92421385822979    1.20511922135990    0.39737383589315
O           2.25328789232321   -0.00466141211329   -1.06541440588569
H           2.07285423539313   -0.27059463589275   -0.13993979871278
H           2.02771498861350    0.93919880199426   -1.10034651029157
O          -1.20472059256002    1.36676735614630   -2.42031170651895
H          -0.49917249950141    1.91842189722050   -2.04239623724511
H          -1.89890357010263    1.33270093246857   -1.72247153533902
O           0.82412002921506    2.35006854142369   -0.80121081510790
H           1.01634220975504    3.25062694771661   -0.53559285749817
H           0.39452372232871    1.92321584729225   -0.02187567575436
O           0.92195667604051   -2.71438067678756    2.89439286538722
H           1.25923742913078   -2.10787281354358    2.20409817585090
H           1.60503455650563   -2.77105800742627    3.56662285184561
N          -0.06281578275794   -0.92862635877692   -1.90423236393106
H          -0.15626348302510   -1.71922304075555   -2.53119952534158
H          -0.56370760105704   -0.05362507681696   -2.26996642612921
H          -0.47132170454204   -1.13609570531866   -0.95125866209194
H           0.95243274268698   -0.66667475239520   -1.73155794398724
