    26
        -50.46796545  Gyration_radius:  2.3910159451 Dipole_moment: 2.354
 S           0.19158322441822   -1.02838120285753   -1.49168014574984
O          -0.82475258477486   -0.36861065436838   -2.28073631067423
O           1.10675973993456   -0.13289767762839   -0.82343053118539
O          -0.37860546686710   -2.00130027725451   -0.55479143285284
O           1.07275721565631   -1.86888887057966   -2.50704104078282
H           0.42305730132843   -2.29118823341333   -3.05993234365892
O          -1.45458632121482    1.06841818306865    1.22000192020037
H          -2.15396924652251    0.46434350925076    0.89348571987652
H          -1.20757794132279    1.56661798756557    0.41224681046244
O           2.73147346456992   -0.21231675942146    1.48045574530621
H           2.73876011302353   -0.46933630138270    0.54989617436715
H           2.59351589811283    0.75407281019508    1.45234069211827
O           1.53367915499357    2.08564671620298    0.73661697935502
H           0.69544577744481    2.35392161593663    1.12054876054380
H           1.32428331418745    1.42425701605751    0.05419358461014
O          -2.76342434751119   -0.78768899854710   -0.21557685681242
H          -1.99822418321740   -1.37644159804137   -0.34109694276730
H          -2.88268184148084   -0.36298691761013   -1.06978191715540
O          -0.81352350522882    2.05071950411174   -1.19756256199880
H          -0.85054082899059    1.20314599492366   -1.68630202723368
H           0.01140773174845    2.47145735698478   -1.44772121873164
N           0.18450430690822   -0.91868360046486    1.77970479425861
H          -0.41202374532664   -0.04023489797864    1.66401569660771
H           0.00173886839919   -1.48565422175042    0.91181994908375
H           1.21463542007615   -0.66651405186807    1.78715340852344
H          -0.08369150835203   -1.43147642108505    2.61317309426883
