    26
        -50.46422796  Gyration_radius:  2.57418487963 Dipole_moment: 3.108
 S           1.16726718462039    1.90472706635851   -0.59190757188212
O           2.48003359584766    1.32298251637727   -0.75733411254405
O           0.36159948960055    1.91753887675465   -1.79708145837040
O           0.41569091014070    1.30453272437683    0.51400473147328
O           1.43032591022222    3.41395085762394   -0.17631568220112
H           2.38179987582587    3.42860950333287   -0.17193527580372
O           1.59797865634786   -1.10593773997556   -1.34241419163026
H           2.03190755702932   -0.25046624453061   -1.14578932364886
H           0.86509082860816   -0.91047376005383   -1.94392165770445
O           0.03336531121714   -0.31823699298922    2.69198178476546
H           0.30042601202678    0.40157701591294    2.09763182711040
H           0.35956322623771   -1.12285584205189    2.26666389645521
O          -0.78668882951923   -0.22946368109861   -2.65421966168827
H          -0.93578890385953   -0.15617408028555   -3.59775635470524
H          -0.38866410851068    0.63742575199394   -2.37589548686865
O          -2.61531873574401   -0.24308704749703    2.29467355355424
H          -1.68336418086352   -0.31377095709052    2.61624566312431
H          -2.95647895392253    0.57585148456872    2.65572080336099
O           0.57856325292446   -2.33332220469648    0.72764796845805
H           0.80697208754524   -3.26279311771201    0.69847689399686
H           1.10092217611122   -1.89372536574057    0.00378024396616
N          -1.34291092003667   -0.56473019057412   -0.02069427372205
H          -2.12547150291885   -0.45390362005861    0.65593637028767
H          -0.67318384819793    0.24573863729958    0.13801158408960
H          -0.80807275856304   -1.41859431732857    0.22876915316888
H          -1.59556333217058   -0.57539927289654   -1.01427944305611
