    26
        -50.46480224  Gyration_radius:  2.41962002164 Dipole_moment: 4.281
 S          -0.29028273112141    0.41246105518955   -1.89173306874731
O           0.82006220389457   -0.46503831152395   -1.52713219154705
O          -1.57129418245418   -0.24262582358643   -1.69501432825752
O          -0.18568056660531    1.70651738083487   -1.26564545120774
O          -0.17415097803327    0.64701704495074   -3.45437556432163
H          -0.62948392673145   -0.12070649640181   -3.78225531502912
O           2.85518155453360    0.25516241356578   -0.03731800969407
H           3.52737886802063   -0.38789020286845   -0.26966391888695
H           2.11528628955144    0.09952458952804   -0.67367672761626
O           0.22016789490164    2.44415152710708    1.21123327512114
H           0.96908886129038    3.04248678717330    1.19778806249572
H           0.04594499517115    2.22614169268613    0.26491403150653
O          -2.47325759761011   -2.20225269821123    0.02805088698633
H          -2.31654713252942   -1.65959669603142   -0.76152686990665
H          -2.74494469039878   -1.57225902720113    0.70401217444704
O           0.16325698060687   -2.06038730758017    0.51798120643979
H           0.40686899015244   -1.62630924831700   -0.32318958450045
H          -0.79694827266023   -2.25626471879364    0.43440257834823
O          -1.71072503928439    0.37926839577353    0.93874846487297
H          -1.67262147564885    0.28097266289821   -0.02731901020690
H          -1.74629902562307    1.32264171377678    1.10893030620053
N           1.03734255937256   -0.04284426682441    1.89611173200647
H           0.50105355841493    0.84471278937645    1.75624910639153
H           1.22733804348502   -0.21099636984630    2.87721649613930
H           0.51159655413239   -0.87328612081227    1.44644004665736
H           1.91166825517180    0.05939923513863    1.32677167230704
