    26
        -50.46543339  Gyration_radius:  2.55495155735 Dipole_moment: 2.836
 S           0.49048135969282    2.20594441681844    0.11817088352242
O          -0.88689436933930    2.64424651495831    0.25834988194382
O           1.02662282210030    1.71928792794461    1.38289697318007
O           0.68060506795794    1.25906193288913   -0.96152064475121
O           1.34053031939677    3.48359986956242   -0.26604876627237
H           1.17760334860966    4.06365529158217    0.47047749277891
O          -1.43042869649064   -0.22521945293400   -1.75104358387774
H          -0.64665097931705    0.33918184442937   -1.61890138406457
H          -2.00507029389511   -0.02735436416028   -0.99850499708217
O           1.04854691810584   -2.38415658210395    0.51047660255819
H           1.73095987233928   -1.83616040304547    0.06678780693330
H           0.41727787354294   -2.64556891305814   -0.19819092307829
O          -2.37941798860724    0.59972596637479    0.75314900252234
H          -3.25378704653714    0.89928806268258    1.00694393107742
H          -1.85107952067080    1.42157394206083    0.55972192619822
O           2.56903651141158   -0.58709695415130   -0.77355652331653
H           2.90874269310642   -0.67016691112800   -1.66576745299909
H           1.92047441338015    0.14827663683939   -0.79997324114673
O          -0.69544891068420   -2.75655764002245   -1.46838146012922
H          -1.01431387971940   -1.83093089609413   -1.60958756599072
H          -0.43543271554211   -3.08237157755644   -2.33040827305002
N          -0.15472469090679   -0.55598922345946    1.87903399480658
H           0.40839281668169    0.33277176471739    1.73704163939495
H           0.33072126720002   -1.36582301976712    1.32164686523661
H          -0.19621375591114   -0.78686033607857    2.86603890822209
H          -1.10053244590791   -0.36235789730301    1.51114890738504
