    26
        -50.47619442  Gyration_radius:  2.40276945572 Dipole_moment: 2.084
 S           1.25940262573385   -1.16013092765889    0.02564818604775
O           1.47214028148595   -1.75561853977990   -1.27492521413488
O           1.61322788665131    0.25117527187072    0.05341302640027
O          -0.05885952333696   -1.40863271862677    0.57298921578516
O           2.27190784606682   -1.88805818739948    1.01562955901551
H           3.02364295825127   -2.01108574737403    0.44703683387834
O           0.33571433904846   -0.90065517468268    3.14423506426878
H           0.09928868823408   -1.20924982281144    2.24829078485192
H           1.20665358038622   -1.26275829925759    3.31717983264306
O           0.28977584563034    1.53970966695274    1.97769549492734
H           0.91828689904619    1.17608298128714    1.32148907009964
H           0.17313773256310    0.81120502908553    2.61755095806701
O          -0.47912896593759   -0.75584876906230   -2.68822184842211
H          -0.48016703525259   -1.19026063027118   -3.54324818128837
H           0.25036531549628   -1.17842734865716   -2.17086345711841
O          -2.29467063487183   -0.56601478169489   -0.60013547490110
H          -1.63584763813500   -1.02687261125647   -0.04615943502962
H          -1.92513795963955   -0.64070956493673   -1.49478185712089
O           0.33989732428640    1.71393863971552   -1.79689868429488
H           0.01780110377592    0.97817224843041   -2.34392111405634
H           0.97907113825634    1.29733115765370   -1.18537013422317
N          -1.50461207241700    1.86041946729936    0.08889376009926
H          -0.82573017347573    2.00170287985993   -0.71407452532733
H          -2.16661120835685    2.62297445849205    0.17091074160899
H          -1.98132810583757    0.93282200274103   -0.10577797642015
H          -0.89822024764982    1.76878931008347    0.96341536464493
