    26
        -50.46598014  Gyration_radius:  2.51770005427 Dipole_moment: 4.326
 S           1.13040050085432    1.40012483121209   -1.03952328903073
O           1.67671203300172    0.42615696657711   -0.08952267956827
O           0.86427365788943    0.77681422762052   -2.32133874370468
O          -0.00018686297652    2.10862439755429   -0.48554016642460
O           2.26686671425173    2.46913160378812   -1.28351919607040
H           2.89019905101527    1.97932259793078   -1.80964725030134
O          -1.32562907175171    1.03268763137026    1.55640548452239
H          -0.80232300084554    1.56810115122934    0.92192549513795
H          -2.24236185995601    1.22167279242043    1.33644450121447
O           0.51396254978697   -2.53326995375355    2.30715196001594
H           0.78248621065237   -1.62722238223748    2.59513215750585
H           1.29860548224165   -3.07827157624570    2.37319474772139
O          -2.36927678214982    0.77360239334522   -1.05069031166503
H          -2.19232438126165    0.15306567690671   -1.76515794271193
H          -1.62887287480147    1.39791272929938   -1.05481361339671
O          -0.86651400897212   -1.18038039765480   -2.48376403458089
H          -0.76723409695809   -1.63985125037140   -3.31815939879083
H          -0.20741765383787   -0.44354355115522   -2.49359864913115
O           1.15153189541061    0.04626170440501    2.60329287965578
H           1.53213339138606    0.26410739875089    1.73602621989289
H           0.30186104413657    0.50279175826682    2.63096020462595
N          -0.42008235512470   -1.15221135771454    0.21643454186507
H          -0.21349308424119   -1.92509033077298    0.88453602837221
H          -1.03803127607019   -0.45158090589306    0.68732631813687
H           0.47826923341362   -0.63601366867236    0.03197645368224
H          -0.81355445510484   -1.45294250620947   -0.68553171696400
