    26
        -50.47455455  Gyration_radius:  2.42591711226 Dipole_moment: 3.604
 S           0.03731893399792   -0.22853391340504   -1.51771647209514
O          -1.26819240859153   -0.18831032518035   -0.84962987500529
O           0.64324437611361    1.09606130028959   -1.50178795340992
O           0.89546102001066   -1.24709746603396   -0.94379363942616
O          -0.21224354813197   -0.64142966212961   -3.00057834097608
H          -0.75734502048618    0.09268101338003   -3.34597990014847
O          -1.51795819392196    1.65536249007781   -2.97705587908524
H          -2.14186194617485    1.36857660833961   -2.30276475271195
H          -0.69382502527806    1.85430779211328   -2.50239673489131
O           1.31366248015728    0.42417243698607    2.39165960780130
H           1.99035381551252    0.58604662592265    1.69566250083593
H           0.54891004250500    0.96724183621478    2.10946458146112
O           2.72251367951898    0.66031804232444    0.12784784204899
H           2.02671033336092    0.95540721874796   -0.49134351591710
H           2.96684348587601   -0.21164953767342   -0.19137211659458
O          -2.21033950700427   -1.34655706281974    1.35212358691277
H          -2.48617986179256   -0.57518837137128    1.85366147297193
H          -2.01671592377351   -1.01486419062950    0.45032198180885
O          -0.67941483745153    1.63045772599050    1.01929987783390
H          -0.94460834797573    0.98038263529389    0.33929248438644
H          -0.18516050447016    2.29932387017190    0.53854647501623
N           0.39924991344177   -1.85621724907195    1.56866750357328
H           0.82089805432226   -0.98108080367874    2.04739297208540
H          -0.64711813254246   -1.80737028480409    1.64416889362658
H           0.62758287047753   -1.74894662660375    0.54412931522558
H           0.76821426229872   -2.72309408245099    1.94218009467359
