    26
        -50.47612852  Gyration_radius:  2.47925422776 Dipole_moment: 2.430
 S          -0.62066765271157    1.08676089447899    0.76830675607055
O          -0.40071898904726    1.38655314474748   -0.64287832412414
O          -1.69679282568023    0.11364389315306    0.93523307066853
O           0.60725867935254    0.65201629302269    1.41528349035138
O          -1.04817845699011    2.40658084059714    1.47646844985264
H          -1.96315738743350    2.54621953103780    1.15968028246680
O           2.39987670957183    1.48064998253260   -0.39398753093674
H           1.88774640922592    1.25639372700746    0.40528705599786
H           1.76483798590123    1.94056737922855   -0.95112756339379
O          -3.50946483783717    1.97782085347371    0.62363678305384
H          -3.04264583077594    1.11750334871611    0.63179340702464
H          -4.20244679975413    1.91983575494709    1.28554430690602
O           1.44818753084547   -1.82450116871727    1.19353681838691
H           1.13230177600174   -0.89921861626747    1.32869225886390
H           1.87500812988043   -2.07952477274681    2.01284060289377
O           2.55937648878834   -1.05702402713424   -1.23199982005252
H           2.71196005573465   -0.11393957547452   -0.99268429804953
H           2.38755577040384   -1.50372623019667   -0.38595385551384
O          -1.00194043075052   -2.28140316730397   -0.00776685751889
H          -0.18217139723394   -2.43445452198761    0.48985673208268
H          -1.40736208021345   -1.49540088941658    0.41366621260177
N           0.05152053051001   -0.84510298111859   -1.94366114604444
H          -0.23130896161956   -0.92008621657991   -2.91384857607652
H          -0.44286621670502   -1.55114194862608   -1.32205116059759
H           1.10685586034589   -0.98329730033584   -1.81259739086942
H          -0.18276404981092    0.10427579297006   -1.54126971404482
