    26
        -50.46533300  Gyration_radius:  2.44817840574 Dipole_moment: 2.393
 S           0.11804539522082   -0.73712467137105    0.79131962354954
O           0.80783232701853    0.55235113552538    0.71168985793007
O          -1.30233480681342   -0.57807525923159    0.48453446949772
O           0.75262590167196   -1.72067413821360   -0.07494590530939
O           0.25079164878108   -1.28233295076322    2.23090421579738
H          -0.15879359018668   -0.63511739668420    2.86904156600671
O           2.74894055414165    1.19605741084882   -0.97313029528609
H           3.58852870770628    0.99520138607384   -0.55726938761127
H           2.06438196458751    1.04998903409251   -0.28114046641239
O          -1.32072940001848    1.87717627674736    1.56227998349342
H          -1.79092204800660    1.12736320779123    1.16546626682310
H          -0.39694636540143    1.71434096253689    1.29645613548404
O          -1.10842277986359   -2.25515866669764   -2.03142088434359
H          -1.93804695205186   -1.89086974351488   -1.71709769622899
H          -0.54763306315262   -2.32682866578765   -1.24588794581373
O          -1.08710917767622    0.96235562391282   -1.63891198778453
H          -0.89611006476523    1.81799000229485   -1.24632015821517
H          -1.28773969470522    0.35914018568443   -0.88715327529148
O          -0.95489496980716    0.44729744311520    3.76050811134379
H          -1.80818684293849    0.10789289650189    4.03876980207795
H          -1.13269985491295    1.15338399858999    3.09205251583255
N           1.09779410870812   -0.39012176813925   -2.30917682631661
H           0.20466359243606    0.17282298275938   -2.25639828533813
H           1.15895363992256   -0.90002340240291   -3.18448189474681
H           1.90368691613023    0.24095979595783   -2.11062185833598
H           1.03432485397868   -1.05799568959401   -1.48906569079777
