    26
        -50.45198918  Gyration_radius:  2.60471376608 Dipole_moment: 2.747
 S          -0.34167572158754   -0.57800390858994   -0.23804447669453
O          -0.02452602776755   -1.72851147719886   -1.15377111529171
O          -0.81320841352280   -1.26563773731488    1.04851902718120
O           0.85766018707473    0.18609037724200    0.03693805055741
O          -1.41790961235890    0.23082541541111   -0.76428187711624
O          -1.37673838759619    0.66700433759419   -3.38750982097428
H          -2.21315419677458    0.34929901957719   -3.73259714758150
H          -1.44983558767695    0.63358754008371   -2.41089093561228
O           0.13711563929878    1.64964407388475    2.23734822716199
H           0.44428341211256    1.00867984674966    2.91370455870907
H           0.52129962636224    1.32560404770212    1.40694883361006
O           2.44403167841910    0.68091699590911   -2.04252927557604
H           3.32799156884215    0.39831175874494   -1.80133152216389
H           1.90347607891580    0.62468577826495   -1.22781927281086
O          -2.22111278032971    0.64350197578276    1.81920002180955
H          -2.42889752824249    0.91891320317281    0.91739010645972
H          -1.47533082480843   -0.57517489374407    1.46536830988020
H          -1.43118219167361    1.19350799516086    2.09659987049560
O           0.74927842298387   -0.87058233959204   -3.31633008076043
H           0.34049804157398   -1.40116453284536   -2.16950120966454
H          -0.00855394988775   -0.27323710702606   -3.54810285991694
H           1.48187652827456   -0.27070817970616   -3.02106505183857
N           0.73952513606332   -0.62176951614672    3.65734626609998
H           0.39887406243487   -1.18623396751088    2.88579141814188
H           0.16832993970629   -0.82947299354045    4.46682391891993
H           1.68788491016242   -0.91007571206508    3.86179601697229
