    26
        -50.47235911  Gyration_radius:  2.4537956095 Dipole_moment: 1.908
 S          -0.35500283496614    0.26469429166625   -2.05414935536315
O          -0.43700283399568   -1.14379108927511   -1.67194611359514
O          -1.45790599440044    1.03110860809387   -1.51564745104495
O           0.95095222670182    0.82074296027744   -1.76548421089116
O          -0.52576639455661    0.31355363090673   -3.62733461628785
H          -1.47421029301084    0.33382577864128   -3.68399330631688
O           1.95351412461221   -1.52388414952650   -0.59865504521695
H           2.46071324603929   -0.88040013867779   -1.10078707818960
H           1.06375208079137   -1.48733746100561   -1.00654520169479
O           1.68209744726106   -0.31934291021939    1.76778933788759
H           1.85689298178381   -0.87438180791237    0.97131637297793
H           1.73671906295767    0.59748524451544    1.44722178602386
O           1.37560171905008    2.08817498514945    0.45961104011543
H           1.95323011732865    2.82659861136176    0.26183867698325
H           1.21491889444717    1.62802172590801   -0.40464099567760
O          -1.68793228784607   -2.27884285095130    0.31645169127726
H          -1.24817523112444   -3.13142733892138    0.33502533929403
H          -1.33487613189200   -1.82456184984794   -0.48520854260146
O          -1.31767983337851    1.88424256143444    0.97070681611948
H          -0.39804607298133    2.19791182103229    0.93847323573132
H          -1.51623044844219    1.63112421489481    0.04127719683458
N          -0.91277049761197   -0.44303526086253    2.10452013337640
H          -1.19454716932745    0.50953407576131    1.70352818952934
H          -1.28743185951519   -1.19491323893905    1.47448792933560
H           0.15702686252263   -0.46948465347318    2.07144623142166
H          -1.25784088020229   -0.55561576029309    3.05069792981722
