    26
        -50.46810377  Gyration_radius:  2.51165869063 Dipole_moment: 1.198
 S          -0.04195219151913   -0.70269854613098   -1.23068111767811
O          -0.84965247950446    0.49516948556134   -1.02952230345076
O           1.37002846413369   -0.41942290261135   -0.97971060299677
O          -0.52996741060575   -1.80422618614667   -0.42108137181518
O          -0.17970274211839   -1.12693952068362   -2.72838186740043
H           0.25560887429931   -0.39457405572646   -3.20258949910505
O           1.61943117349977    0.69403820518393    1.44280846416900
H           1.75396403343829    0.19643548687918    0.61206931295716
H           1.29889553880914    1.56445357694239    1.13800184798797
O          -2.21754995494073    1.49293494714198    1.09046627669656
H          -1.71497565722681    2.31255993208740    1.14140992991651
H          -2.01019569171320    1.13472323092292    0.20778214845549
O           1.51092033632091    0.88361315876351   -3.22845518627787
H           1.65288892093130    0.53017979938352   -2.32420218032406
H           2.30115295942584    0.67198955291737   -3.73040792898431
O          -0.70347416556737   -3.30483064201176    1.95857298644661
H          -0.62613736345581   -3.01834166251211    1.03709295904108
H          -0.69918468633227   -4.26256249079505    1.94223779344024
O           0.34325656926422    2.61575665803973    0.00236812990980
H           0.82275830148798    3.09370937420002   -0.67582442813818
H          -0.08412813395622    1.85929875609921   -0.45943783809012
N          -0.66557569910753   -0.50301523609173    1.92375713266589
H          -0.70052501568037   -1.03820599681374    1.02394198179312
H           0.29750312808220   -0.04657889239539    1.94495043621117
H          -1.39683105127383    0.24652637761728    1.86472063907512
H          -0.80655606676943   -1.16999239979597    2.68011429549839
