    26
        -50.47039627  Gyration_radius:  2.41539210355 Dipole_moment: 4.724
 S          -0.05271673999457   -1.46717368580927   -1.40452646012422
O           0.01367388533900   -2.14579298816770   -0.10741344764907
O          -1.32230238152260   -0.77468848142122   -1.55705662957562
O           1.10142975603820   -0.64304734127372   -1.66246914150850
O          -0.03429148961286   -2.61150592717872   -2.49756867014339
H          -0.86342891756981   -3.05309516220052   -2.34933697644325
O           2.31388587929548   -1.16087085028917    0.68049871481862
H           2.51088575240759   -0.91644434913117   -0.23352487711848
H           1.49218333837072   -1.68400423761582    0.57966779824079
O           1.54349616975192    1.09955146905580    1.70654142247390
H           2.13385899202505    1.31254263002305    2.43016966379272
H           1.85008536681956    0.21190848911349    1.35389954880579
O           1.32309292427351    1.96400248972497   -1.02751681001541
H           1.35813162062893    1.06488448151292   -1.40364124100797
H           1.55315521726171    1.86282096258558   -0.09416656684369
O          -2.13550501149662   -1.20160063160846    1.00792367468121
H          -1.31602972295203   -1.68746454335532    0.75757339049466
H          -2.52472607612023   -1.00046546747037    0.14706595987411
O          -1.32019341730686    1.83805753656665   -1.01775521808276
H          -0.37913719351213    2.08639881295483   -1.18060263193157
H          -1.40128644420153    0.92637377884952   -1.37073696744109
N          -1.17080186586868    1.20825234679712    1.48191007835525
H          -1.28904059360164    1.58327060866077    0.46212012446534
H          -1.57107644512498    0.22401666404753    1.45717934283973
H          -0.15312187949012    1.17408805918441    1.68954437917324
H          -1.66022073384182    1.78998532644636    2.15222153986793
