    26
        -50.46408338  Gyration_radius:  2.50981009477 Dipole_moment: 0.777
 S          -1.04234969475848   -0.05054057506414   -1.45343042177510
O          -1.09669770662202    0.90934590998681   -2.52298207409085
O           0.17166107654240   -0.85622858019539   -1.45386365254905
O          -1.31957920186052    0.48740039320996   -0.13362038655634
O          -2.23793874120320   -1.07695772096489   -1.71915952905271
H          -2.21860086611613   -1.15846810962855   -2.66644161725433
O           1.93155530690018    0.92379287186756   -0.42158370047467
H           1.38741125344436    0.22210232882384   -0.81777633019124
H           1.54125283810142    1.74806149568073   -0.77173632918166
O           1.86609131371224    1.22925520926666    2.20819252589940
H           2.02791527678107    1.12144309750011    1.23640419333929
H           1.60494174657613    2.14425451702924    2.32472458395350
O           0.44853345418696    2.85982186037019   -1.58323455666823
H          -0.21002363779274    2.21276471081161   -1.90852712591550
H           0.75480164870669    3.33464827715609   -2.35863626689614
O          -2.61380112083302   -1.49746535311486    1.25368469936589
H          -3.02945981632744   -2.13573797204876    0.67256256991053
H          -2.38992615495243   -0.74280572576421    0.68776643730625
O           1.30286482771073   -2.40606022427780    0.36207014891041
H           0.86020236201553   -1.99572014124626   -0.41171178930010
H           2.23420468375758   -2.19229110337443    0.26847032771034
N           0.00572638842533   -0.62241264465168    1.87480680754022
H          -0.50523020286937   -0.13889510552348    1.08979981887341
H           0.69456965776690    0.06590470979507    2.26740371908574
H          -0.69148106823954   -0.95656927770200    2.53552238778058
H           0.52335637696127   -1.42864283794541    1.44129555023406
