    26
        -50.46443383  Gyration_radius:  2.61876652054 Dipole_moment: 1.272
 S          -0.59497837910733   -1.02932971103984   -1.86952115098143
O          -1.75922831517569   -0.97074485777198   -0.98772321424870
O          -0.58398657234558    0.05468607929415   -2.83138716646946
O           0.63889817063258   -1.16198972550910   -1.12501728355918
O          -0.75157256745702   -2.36115232480318   -2.71892598675055
H          -1.36247808363864   -2.09948476977646   -3.40044090366820
O           1.86680490393764    2.23361338296206    0.80029145534033
H           1.23372288759860    2.80677085558028    1.23736063080374
H           1.48387029234863    2.03271803495312   -0.07225687525583
O           2.55321673503414    0.19802290609440    2.43048340483306
H           2.42966839233821    1.00234308513428    1.88254354520714
H           3.33288684494490   -0.24048726401346    2.08625108267454
O           0.37196098054863    2.05951785690477   -1.49872704609864
H           0.50693236876541    2.76306020883851   -2.13654062317690
H           0.07454628837022    1.27510731956721   -2.02621676319371
O          -1.82246919477000   -2.42398456971061    1.24907718492171
H          -2.73468140021916   -2.46803255803835    1.53857890224427
H          -1.83872617318688   -1.99090846836951    0.36822684080473
O          -1.39718159395424    1.26530185956222    0.45623293013623
H          -0.86377416761459    1.77492282746660   -0.17353050690268
H          -1.76313106622630    0.53279962029901   -0.07605226307819
N           0.20772119416030   -0.65482985635621    1.40953211404082
H          -0.37437679197146    0.20808733796007    1.28514848294392
H           0.49501742981066   -0.92531971002457    0.43005736316801
H           1.05301743650100   -0.47013198874105    1.98728406149700
H          -0.40167960936185   -1.41055557049635    1.75527176476638
