    26
        -50.46379215  Gyration_radius:  2.5273310789 Dipole_moment: 3.682
 S           0.16127876045556   -0.69376142166521   -0.25813692847773
O           0.99147144410655   -1.61265569525390    0.47785736302093
O           0.74909517646607    0.67892240056661   -0.25567032499621
O          -0.16282614234280   -1.09130607237797   -1.60476304976166
O          -1.20836398596849   -0.53019481709971    0.47685251688236
O           0.22481248651430   -2.84291148711825    2.70759365195820
H           0.59667437154900   -2.48809516196016    1.87298061451146
H          -0.27489878607425   -3.62355270638249    2.46538282292332
O           1.47351411652668    1.27746390007034   -2.80365951398588
H           1.33705071777721    1.08046357878969   -1.85756736329816
H           2.03247783469763    0.57402825168821   -3.13800002743044
O           1.77000493244505    0.49635477939092    2.21468344837393
H           2.21529954173930   -0.35548244188163    2.18860111964347
H           1.51139604285833    0.67113680650800    1.29157279447579
O          -1.11680079816130    0.71856170698857   -3.23793399567181
H          -1.46479523317203    1.43778987846935   -1.98480252838016
H          -0.22494085414196    1.08035642596815   -3.42111173275486
H          -0.90736449546184   -0.13776226121130   -2.79610376415137
O          -0.66432497467640   -0.31851614174413    2.92594450872734
H           0.21753468544843    0.11789074027008    2.86669943539479
H          -1.03212173953883   -0.44397682441184    1.49128127003660
H          -0.46080649384991   -1.25451035678512    3.12780602327196
N          -1.47491568719091    1.77952149510859   -0.93480399551115
H          -1.65725997537349    2.77281856867400   -0.83284046587776
H          -0.50149682193023    1.49760997083113   -0.58441918326542
H          -2.12969412271179    1.20980688457095   -0.39744266565863
