    26
        -50.46688870  Gyration_radius:  2.5044016554 Dipole_moment: 2.138
 S          -1.09958493999640   -1.64279783714962   -0.09519680413246
O          -1.25730253783506   -1.78260945468708    1.33512406702787
O          -1.46037676613101   -0.29597236983509   -0.54562802091706
O           0.20843840089044   -2.01923578691025   -0.58825057406184
O          -2.14768878830384   -2.63410960666510   -0.75054488894997
H          -2.75825537800027   -2.78074649999128   -0.03521697014638
O           1.18388220661871    2.60543622792997   -0.79226169362968
H           1.76187184832521    1.90811862124510   -1.13636156924980
H           0.40254726098868    2.55015471616983   -1.36923685258950
O           2.18405455346532   -1.05180235769976    0.90604390387801
H           2.79184088342570   -0.81816090341909    0.19780033390948
H           1.52259704081295   -1.63876449178131    0.48778928543208
O           1.55437945508410    0.02020700728164   -1.82215084434759
H           1.09291276395131   -0.76647667177695   -1.48146003835969
H           0.95835524234019    0.39124391119788   -2.48000334592382
O          -1.02920824645461    0.11722557781449    3.22237882149514
H          -0.70039186374750   -0.30853924078184    4.01552273644619
H          -1.21494100937949   -0.60738759155488    2.58966587332683
O          -0.86056242296579    1.58730853962162   -2.35159178272903
H          -1.67280054900252    1.93641817345478   -2.72010629187104
H          -1.12570635039233    0.87006662369054   -1.74056139318409
N           0.33794594162393    0.89714387981060    1.04901331320988
H           0.66939140379232    1.76802441202866    0.56281491625493
H          -0.40811872936401    0.47526581040140    0.45192398827475
H           1.12944959879214    0.20503922579544    1.09663981284879
H          -0.06272899853635    1.01495010580872    1.99385402798916
