    26
        -50.46380679  Gyration_radius:  2.64260698241 Dipole_moment: 5.538
 S           0.99707897566836    0.57470917643954   -0.51888604522702
O           1.52203687056209   -0.18007858488081    0.60991721247640
O           0.51694823137820   -0.30361169951851   -1.57749159226486
O          -0.08522917936822    1.47880356090414   -0.10125173394618
O           2.11258441128141    1.49173278358153   -1.07936040272063
H           2.84071823680558    0.91085685140389   -1.44091507741476
O          -0.65529045293997   -1.31958225351142    1.48960210008890
H           0.24309733744632   -1.02420350338811    1.20168862839990
H          -0.90736883128454   -0.67078251518083    2.15993264930997
O          -1.27466253692789    1.35687867499742    2.23817213716878
H          -0.76328717674141    1.45324406008328    1.39664560869788
H          -1.00589184810408    2.09420280931040    2.78790267457097
O           2.35790925822782   -2.14102388114157   -1.14817541122033
H           2.40588225679071   -1.96499256948385   -0.20156736286948
H           1.57551014395168   -1.62491240030013   -1.43553327611853
O           3.83005032664892   -0.17195047388074   -2.09812252788124
H           3.69615638413724   -0.17826510878394   -3.04830450665617
H           3.43191017657401   -1.01527146924775   -1.75898959931306
O          -3.74938299691389    0.86802619863070    1.22647523157892
H          -4.25639407041111    0.39631075308900    1.88898725403293
H          -2.92681995328732    1.16915738921244    1.66734632239380
N          -2.01626168468457   -0.25272393768257   -0.48184635140709
H          -1.54236707854755   -0.88777954789935    0.23733307957856
H          -1.32849507965591    0.54400808822699   -0.56086047802942
H          -2.11554212526619   -0.70906850193361   -1.38246825438888
H          -2.90288960538606    0.10631609093237   -0.07023030885722
