    26
        -50.46742190  Gyration_radius:  2.52133398829 Dipole_moment: 0.844
 S           0.19523707761399   -0.92201111950372   -1.64036949480851
O          -0.13422051373265    0.44483054938534   -1.24294488631609
O           1.25147402654794   -0.99046123463869   -2.61521692510319
O           0.37198277835974   -1.77194500068129   -0.47697522722495
O          -1.11368542551490   -1.48419038834393   -2.35788706252804
H          -1.00903362379852   -1.21828865713370   -3.26611847113659
O           2.31096543633614   -0.92477862706039    1.31566459237961
H           1.75040360796811   -1.55390075973306    0.83479934683820
H           2.79899823801549   -0.47025098340936    0.60292453932452
O          -1.31510939478165    2.77514412479975    1.75044814369946
H          -1.88614969171508    2.28606787382266    1.11383911570827
H          -1.25291672725386    3.67121298503070    1.41875609897382
O          -1.79047213923345   -1.37514610326453    0.94426406797056
H          -2.26021227973574   -2.19149045798832    1.11920087166931
H          -1.03924802830676   -1.61007670190203    0.35124898489584
O           3.04917658512118    0.17208152023495   -1.03785498564835
H           2.39234285456750   -0.21772483670563   -1.64857776135754
H           3.89087236756631    0.13499925312468   -1.49673432840176
O          -2.49207582597509    1.17887163782600   -0.08272692829056
H          -2.61114286190931    0.30869264866575    0.32180055930850
H          -1.74897060358607    1.05589546539885   -0.69736059945293
N           0.14177896518880    0.55822721658089    1.39117004126132
H           1.08229824510398    0.14271476429395    1.62238173704905
H          -0.59657104131973   -0.10490702594677    1.65882239280063
H          -0.08770101897322    1.49059398882584    1.77751993310241
H           0.10197900377023    0.61583984842483    0.33992625521827
