    26
        -50.47033483  Gyration_radius:  2.47647986695 Dipole_moment: 3.204
 S           0.49226984241094   -1.02351818343297   -1.41442570053606
O           0.00530038945266    0.34188736563619   -1.63137364329882
O           1.42680148063358   -1.02479769056318   -0.27627740110350
O          -0.58027654254685   -1.96536558499234   -1.23845446775152
O           1.30056458221618   -1.43216002679709   -2.68243215852755
H           2.01796400487229   -0.76859842626649   -2.69327318321113
O           2.80545061399693    0.59412447890027   -1.88185385294660
H           2.15376435351660    1.29508492188359   -1.97794744763039
H           2.55592064565679    0.11202328139520   -1.07456722686444
O           0.52605681381764    1.42591483287500    2.71021663602743
H           0.27438820993540    1.80280485556509    1.82978772566610
H           1.42599648190777    1.71369559586778    2.87097748768043
O          -0.10755853122995    2.21695223772975    0.26885834986312
H           0.06988040194449    1.53985733391595   -0.41527104998127
H          -1.05688486280093    2.36379633132476    0.21489837006723
O          -2.21791072620793   -1.40232701341396    0.76887641938209
H          -1.76613658934463   -1.82524370627205    0.00904544353571
H          -2.50947907625692   -0.54292012424571    0.40730914639004
O          -2.48810530359531    0.79127089454145   -0.80738488676004
H          -3.12828949457424    0.63877584351746   -1.50402095638250
H          -1.60969678733363    0.59716063052924   -1.20138756946145
N           0.08571435188096   -1.09944302048274    1.97125005297970
H           0.69041662088923   -1.14833681357382    1.10143670097454
H           0.32682528065685   -1.84222023778531    2.61799629544391
H           0.23058270399978   -0.15082375543787    2.40162915461721
H          -0.92355887388142   -1.20759402043326    1.62638776182918
