    26
        -50.47167187  Gyration_radius:  2.43175743028 Dipole_moment: 2.762
 S           0.19974058117188   -0.31159562969581   -1.93383217442721
O          -0.85355334586331    0.31767898634851   -2.69778506830920
O           1.24597317172652    0.62523746854448   -1.53986349699513
O          -0.28456868913281   -1.10045415525451   -0.81820168661137
O           0.89928674635428   -1.35896853733349   -2.91008549635345
H           0.97789874817914   -0.87424532923813   -3.72553747904899
O           2.40093057279876   -1.27842765144934   -0.16029974361671
H           2.16703425251985   -0.51594965315058   -0.72954143954603
H           1.69834161267647   -1.91180770347174   -0.33843539611703
O          -0.70432433430458   -1.15048502931086    1.84500056464929
H          -0.58150381286388   -1.32443218212869    0.89228126617510
H           0.17557423986315   -0.88071176886466    2.15933443591043
O           0.68163288246755    1.97375642300532    0.67393509208102
H           0.90427382794001    1.62067351429308   -0.21358495799489
H           1.16355391515014    1.39573104890078    1.29239723678554
O           1.82534550677262   -0.09871025806155    2.12320901228816
H           2.57852874840184   -0.10548825560402    2.71479564419547
H           2.11541822715805   -0.57011187216488    1.29632203005982
O          -2.86910782507971    0.23802263000222   -1.05595143638226
H          -2.17876478541870    0.35919639575914   -1.75223981179073
H          -2.88595757124608   -0.71040237617720   -0.90307841661661
N          -1.76010724176244    1.15655526020675    1.17192140918160
H          -0.83493377566510    1.63585241839628    0.93815153119797
H          -2.26259158757633    0.90799572770626    0.27348258410231
H          -1.47934068976072    0.23426463534415    1.62016858841234
H          -2.33877934447872    1.72682588339235    1.77743720878122
