    26
        -50.46201787  Gyration_radius:  2.52950260779 Dipole_moment: 5.674
 S          -0.83464776623423   -1.51491408036358   -1.23351304437295
O          -1.46127871742018   -0.51136482599700   -2.06096691701190
O           0.62352940073036   -1.46803175674687   -1.30710877150656
O          -1.27962003307162   -1.50859235480089    0.15113332229629
O          -1.27796463924001   -2.91076799782559   -1.84077179721166
H          -1.53555960404749   -2.63250857054459   -2.71244971466944
O           0.89936119665457    2.61569627807130   -1.50223393235231
H          -0.08450185106402    2.48476766910776   -1.31367831002122
H           0.97624239280580    2.57372002522397   -2.45674768789668
O          -1.54227017343570    0.89273211384080    1.37948459944201
H          -1.59735172441521    0.00532040502098    0.98166083744499
H          -0.69704791264275    0.92188118508000    1.84350091810645
O          -1.56078959610405    1.99600791219776   -1.08640125362676
H          -1.67927193154449    1.78971410957400   -0.13772084243115
H          -1.63019494291925    1.13137621436615   -1.53604017382032
O           0.36606495793744   -2.14184112562685    2.06667748906749
H          -0.20961266472068   -2.55833255028205    2.71105433694017
H          -0.20100215174627   -1.99320713278613    1.26996815297013
O           1.09451796593517    0.35272969011626    2.39470695992293
H           1.59677938296332    0.46409968370498    3.20257599082809
H           0.84254821313318   -0.60877076811232    2.33969766654046
N           1.85534556244150    0.53016746599759   -0.22204514602414
H           1.51528733414956    1.41004696564629   -0.72427357352309
H           1.35452068591558   -0.31098677308561   -0.65999088071674
H           2.85765532930614    0.41988410318795   -0.33347143286125
H           1.60926128664486    0.57117411501828    0.78695319449499
