    26
        -50.47214161  Gyration_radius:  2.41841636452 Dipole_moment: 3.336
 S          -0.41044092935770   -1.66845785977878    0.76119866678226
O          -1.12261617744011   -1.35199870891368   -0.46829427923723
O           1.00562649043393   -1.88876452587530    0.52338011575568
O          -0.67237711713034   -0.70260979299488    1.80857045067320
O          -0.99325183939121   -3.04329457013718    1.27588788107733
H          -0.70673116901944   -3.64429765338722    0.59664628558498
O           0.78989657630745    2.20364674232613   -0.08925630753190
H           1.36740945887754    1.67082667510681    0.49686403492092
H           0.69293780412257    1.65675526891312   -0.90655967424110
O           1.96643545429404    0.38231386736238    1.52087900960276
H           1.67135581268884   -0.48300024614679    1.17306580778103
H           1.57229035720086    0.44058311581463    2.39333051589227
O          -2.65404086478901    0.64690225013508   -1.39344397046532
H          -2.08708918462209    0.92231375023043   -2.12110045465459
H          -2.31514132037067   -0.23081095982002   -1.13359171352326
O           0.34867756178730    0.36572669140401   -1.95126266760671
H           1.23501984003021   -0.03370339334340   -2.03987080618215
H          -0.16898825518886   -0.30800238156373   -1.47333977157099
O           2.66890094306223   -0.93447907247847   -1.42019421373858
H           3.25379817248429   -0.38921323582338   -0.88874566482291
H           2.14698707875454   -1.45196793940462   -0.78334148155716
N          -1.54250368966510    1.58955294957987    0.84217232004857
H          -0.59709238830932    1.99700400227742    0.49717002147864
H          -1.29936411377460    0.68188025705926    1.31747926499715
H          -2.03112671727369    2.21753783659157    1.46980995344424
H          -2.11857178364434    1.35555692283553   -0.00745331296787
