    26
        -50.46547032  Gyration_radius:  2.52330502264 Dipole_moment: 4.987
 S          -0.40225391014925   -0.26315144663176   -0.73982495817829
O           0.30896682848264   -1.46777661409914   -1.12323957924924
O          -1.59074096694275   -0.61368575781746    0.06750208235185
O           0.56977470875044    0.47347747291142    0.24522173973261
O          -0.71936800536579    0.63269087874862   -1.82257494978209
O           2.62950767520765   -2.18490004175406   -0.10820162084691
H           1.80177410448780   -1.91333107983732   -0.56783875602443
H           3.34935979770352   -1.83277981575784   -0.63280035441376
O          -2.76482948673605    1.77199441559374   -0.17381891981621
H          -2.68953583683364    1.90930391153250   -1.12249632115657
H          -2.49012987622754    0.84711699233343   -0.03204836231139
O           0.08451409297668    3.15918964737468   -2.03313983460352
H          -0.23889548894992    2.23510141335950   -2.07917732942798
H           0.90527967759028    3.18078340567342   -2.52637813103075
O           1.59518262930133   -1.22456873258908    2.15048269436799
H           2.22389942791204   -1.61427540159483    1.50561755841413
H           1.33329340176744   -0.38382756968135    1.74101751204256
H           0.36507882764242   -2.08357696775067    1.76207095551899
O          -0.41341365841009    2.75941379273220    0.58303563702872
H          -0.16034048695658    3.18144977808279   -0.26198224224799
H          -1.37191673093332    2.55219347775670    0.47746339709575
H           0.19285286871131    1.42317296760159    0.42799627058789
N          -0.44454723022560   -2.56160188981220    1.22948125277481
H          -0.04416056334813   -3.02105657712001    0.40976979885223
H          -1.05281029879327   -1.75767504064500    0.81550655343534
H          -0.97654151065844   -3.20368121860826    1.80835591688646
