    26
        -50.46400340  Gyration_radius:  2.43632498582 Dipole_moment: 6.321
 S           0.04621893005759   -2.25094560907692    0.06952275958079
O           0.96031225043571   -2.60085293048936   -0.99367825581541
O           0.70193700283537   -1.77387475658668    1.26403206393776
O          -1.01993246337166   -1.34999227000590   -0.37486587138849
O          -0.71906262385310   -3.58932836564779    0.46374497688294
H           0.01052585586825   -4.17551073891304    0.63325578490954
O           1.64179849482385    1.77101795631254    0.54277720548499
H           2.50268205071015    2.18823270307030    0.59122860969226
O          -1.94992612662680    0.49846615722946    1.26232556761587
H          -1.76098921864748   -0.31020274377878    0.73535952064167
H          -1.42979670426048    1.48824439684601    0.35021403973400
O          -0.72526378256787    0.26764606938463   -2.36285434740951
H          -1.25449844341909   -0.03749825612898   -3.10068564053291
H          -0.83391101144197   -0.42031296696169   -1.64883004700534
O           1.82804141750799   -0.13674422836082   -1.22896978577430
H           1.66216557401329   -1.08867214857670   -1.06411651118909
H           1.18612596843689    0.10347128832706   -1.90967905595906
H           1.76071291499438    0.96820923265967   -0.03581974943972
O           0.27183379964928    0.44475686119295    2.63962008717821
H          -1.24148777270414    0.49732815665806    1.96226064994129
H           0.47278924663513   -0.45076363252387    2.29612100325319
H           0.84652504857247    1.02573537136907    2.12191759160814
N          -0.87943049017506    2.12212160946591   -0.38919243431680
H          -0.87127687816993    1.58137358462143   -1.27640717046341
H           0.09642736352168    2.19312517092981   -0.04025520728047
H          -1.30252038282212    3.03497008898269   -0.50702579388840
