    26
        -50.46400377  Gyration_radius:  2.43618607346 Dipole_moment: 6.317
 S           0.69545869272952    2.03995009016603   -0.65459248781969
O           1.08728956450269    1.87798055990950    0.72552791816578
O           1.75297411059957    1.74949384956563   -1.59565264331451
O          -0.54820419500134    1.33075832693010   -0.96476713303613
O           0.32382143541899    3.57442691037145   -0.85359028848612
H           1.17517441394771    3.98562259797895   -0.74988157630082
O           1.00529347309293   -1.80223662985715    1.36576839486037
H           1.70053450037667   -2.37167386750388    1.69722966202446
O          -2.10374557076217    0.48337153361434    0.99043417485755
H          -1.82449408857482   -0.86309867291701    0.55405507790463
H          -1.64576083139714    0.97553839926772    0.27247665754818
O          -0.58196028599085   -0.91241051694038   -2.23884689722025
H          -0.93808107017620   -0.77286039479025   -3.11707727220879
H          -0.54151276232153   -0.00977363246544   -1.81642472473906
O           1.87958898697696   -0.76664605505594   -0.86509625773911
H           1.98613443257285    0.19032397754838   -1.04856923056779
H           1.39852767457716   -1.31633201684218    0.58947355207441
H           1.25155395470757   -1.06991727098510   -1.53345108881055
O          -0.07998179878789    0.48155627939058    2.64573562847935
H           0.40034600913754    1.11479316780375    2.07251859183980
H          -1.48365899875519    0.56211027556435    1.76579485871788
H           0.33912970282411   -0.36884703207824    2.45325764744985
N          -1.42639861688697   -1.83494827734254    0.16839389135899
H          -0.54451928824434   -2.01323631594003    0.68768145156884
H          -1.19065351544973   -1.66898520652439   -0.82980653780646
H          -2.08685592911746   -2.59496007886773    0.27940862119853
