    26
        -50.46400371  Gyration_radius:  2.436219713 Dipole_moment: 6.315
 S           2.16656258595095   -0.24295062950714    0.56600146859300
O           2.80217356223986    0.90646648802683   -0.03655805300845
O           1.44142438372961    0.06403652602933    1.77611191232528
O           1.35699897775805   -1.00593279311528   -0.38711347417737
O           3.33543083206901   -1.24523071367759    0.96783195619406
H           3.89006284403661   -0.68011737372876    1.49476334247023
O          -1.77980349659241    1.59025793206647    0.65456300111404
H          -2.16009050400067    2.43688734693205    0.89151412189084
O           0.28477642596872    0.07738105273172   -2.46871472488251
H           0.73826631142716   -0.22936004634831   -3.25473731574808
H           0.77343772588417   -0.32696820924479   -1.69899468526878
O          -0.87087573348254   -2.17135565736915    0.41232828132571
H          -1.58664360587795   -1.28191862131255   -0.46945054507780
H           0.04877837394539   -1.92566989977803    0.16480270313815
O           0.50716474277931    2.08892550043007   -0.50072016398419
H           0.41287877388403    1.72146843762363   -1.38910308198963
H          -0.85630880232613    1.78673065976138    0.33534250786407
H           1.38278675822582    1.76918876702365   -0.19761707659003
O          -1.06040813583702   -0.50698748686902    2.41975566528610
H          -1.47412078141694    0.26367109626545    2.00644974430547
H          -1.01021830768050   -1.71944172693306    1.28877638828700
H          -0.10077409719692   -0.31646156914544    2.36355843166432
N          -1.99870377169647   -0.45920222559874   -1.10601438979433
H          -2.11161770159189    0.36230042501908   -0.48023408726305
H          -2.87238449699515   -0.71456232779711   -1.55050384862048
H          -1.25879287320404   -0.24115496148494   -1.80203807805363
