    26
        -50.46633011  Gyration_radius:  2.51124507584 Dipole_moment: 2.618
 S          -0.55882924637899    1.19707908761982   -1.62377885927227
O           0.85718785544949    0.81796001885847   -1.48876056786542
O          -1.23047518517684    0.43242399387476   -2.64774820434111
O          -1.21377317743310    1.23158345200788   -0.34274918512623
O          -0.52995755588050    2.69936386594109   -2.15503814610039
H          -0.47519093985369    2.57585072829723   -3.09711121778712
O          -0.80413536899476   -1.06726177140087    2.08847053028894
H          -1.75332263195236   -1.19684596659813    2.10772093222787
O           2.00941653670712   -1.57674001718419    1.55503969376528
H           1.34366576587864   -1.64097231377360    2.24932886257297
H           1.54706355083020   -1.85731606274915    0.74786066909616
O          -2.13402471632420   -1.90790602329580   -1.82805896390278
H          -1.95065982448067   -0.99593177027781   -2.14554938008971
H          -2.15713317800628   -2.45819208415799   -2.61310864385463
O          -0.31388099317024    1.59607458196053    2.10606208211450
H           1.08709946810477    1.37083588164194    1.49729059838892
H          -0.78493178056544    1.68573610936920    1.25079900164230
H          -0.53341013048697    0.68134894478948    2.37588290969693
O           0.10718157160917   -1.52601372591206   -0.41950576695287
H          -0.69919564765101   -1.84116410533804   -0.88034676033008
H           0.37350933624194   -0.71865174283844   -0.89309077304646
H          -0.54519342565592   -1.18772212188923    1.14663741685988
N           1.92146091753963    1.02562443824206    0.90734635351883
H           1.57619958355833    1.00954498768839   -0.09277290032569
H           2.12405699055548    0.03237550186934    1.19246031241587
H           2.73727223558242    1.61891614321780    1.00272001640560
