    26
        -50.47150108  Gyration_radius:  2.426265113 Dipole_moment: 3.425
 S          -1.15547133412102    1.37468600167862   -0.56171857820012
O          -2.24871859110859    1.40961276097004    0.39718772857480
O           0.10917880774158    1.73818958973761    0.06025390325418
O          -1.08136222022485    0.12063012402642   -1.28427557699933
O          -1.46352870304732    2.48156992947696   -1.64529740683704
H          -1.54446040485781    3.26757129568648   -1.11560115527308
O           1.89897274763131   -1.47624895907734    0.68809053102884
H           2.70936537814534   -1.98232919951891    0.75187366669202
O          -0.71003814974964   -2.10961273337258    0.15641066040438
H           0.25110659863194   -2.05831085338762    0.31776130621170
H          -0.89100715910687   -1.42485699982788   -0.51684503046604
O           0.71359790068633   -0.15618639508431   -3.23374243887542
H           0.53688039840073   -1.00288223216716   -3.64687071221992
H          -0.02839598993112    0.00743806928159   -2.61796320987635
O           2.20072455109350    0.43989114595235   -1.03005899959134
H           1.52538436807239    1.04420854214752   -0.66810448717106
H           2.06299027412258   -0.77277532901999   -0.00990832688422
H           1.87956622712951    0.21519995554338   -1.92229834855217
O           0.84719742714587    0.46676885458763    2.32375056148793
H          -0.61838420226498   -0.12673238727844    2.37369222924688
H           1.36784515709863   -0.24679255649955    1.90997601184505
H           0.69525479350182    1.10731467056200    1.60174907609554
N          -1.56150544908712   -0.50187575334062    2.04027654203997
H          -2.17001681298001   -0.77705842374951    2.80271169940820
H          -1.33989633952544   -1.30635845091774    1.37575660266274
H          -1.98527927339117    0.26893933361600    1.45319376200373
