    26
        -50.46133345  Gyration_radius:  2.45288577777 Dipole_moment: 4.944
 S          -1.33011336305435    1.57969100188824   -0.47137810018252
O          -0.71330917379414    1.40026728044431    0.82580110545833
O          -0.41244570637839    1.36181843188436   -1.57077759437324
O          -2.54336594229823    0.77516026711427   -0.61981122736961
O          -1.78740240749216    3.09133104916930   -0.54612962801468
H          -2.11509505755129    3.17015150057771   -1.43655101581773
O           1.52528733321122   -1.44562840174606    1.29212456113306
H           2.32613316414709   -1.95968822804283    1.18216806943855
O           1.99785925524267    1.27522614939972    0.66882594201799
H           1.05219088145349    1.50392140505703    0.64754484759216
H           2.04143487724587    0.47634101569072    1.21166450944545
O           2.73587040680385    0.20529429872373   -1.70253572408181
H           2.42534464985745    0.82099653486803   -2.36923915505181
H           2.59162741936524    0.67109798292944   -0.84700304992257
O           0.48185298563443   -1.07406225469770   -1.17754408928045
H           0.07679080783063   -0.18849016622396   -1.33103138180805
H           1.38882537154085   -0.92025706258585   -1.52666669551321
H           1.14952733368012   -1.31823235687033    0.39076407046586
O          -0.87990859226917   -0.76339297325702    2.38560568915617
H          -1.52310723507755   -1.39673185970553    1.13004664133021
H           0.04442876077810   -1.05440456386953    2.32650500132586
H          -0.87359556202632    0.15159961684321    2.03664980479183
N          -1.85107884603688   -1.59160800470687    0.12010312121639
H          -2.26028359751046   -0.65569827050713   -0.21669352114828
H          -2.52709285785232   -2.34483604683363    0.06032673476084
H          -1.02037491602400   -1.76986633541602   -0.46276894539519
