    26
        -50.46633010  Gyration_radius:  2.5113536903 Dipole_moment: 2.620
 S          -0.57678740950823    1.76606889424722   -0.96520939715867
O           0.55185462321387    2.62811761879516   -1.22471980231166
O          -0.51816559144832    0.52448233949427   -1.75404003288863
O          -0.84306711498726    1.49024078771995    0.42195949080771
O          -1.85159170184082    2.54342299618462   -1.52234190970452
H          -1.48415060198479    3.02788427333823   -2.25452452953443
O           0.57677642593720   -1.00228558783466    2.19330242675046
H           0.86911305292919   -0.35891202466598    2.84041920556058
O           0.68652078324932   -2.91055161219738    0.00109171671412
H           1.25951661809717   -2.17683543950955   -0.27698312354198
H           0.67766491678838   -2.85844047786176    0.96369709033820
O           2.69910738884363    2.05252682211088    0.19749620393290
H           1.89291440115021    2.39955034033699   -0.24501742568504
H           3.43928682533240    2.36355392998748   -0.32696855153507
O           1.53498913208823   -0.31446443123363   -0.24375229888779
H           0.90306123048449   -0.66620759173104    1.32775018840444
H           0.85545092118641    0.03183869413016   -0.84818836908787
H           2.10865567956181    0.45287586230066   -0.03391720330233
O          -2.03028446821102   -0.52196229037279    1.63925233633489
H          -1.20186412878415   -0.81464572756120    2.07022105764895
H          -1.79142525568994    0.36502596018105    1.29639978834038
H          -1.90756029710149   -1.25778438030685    0.28731742804771
N          -1.57246226990549   -1.62697598012283   -0.66909136694260
H          -0.75182665751636   -2.26356088648242   -0.49525416747192
H          -1.21711541030874   -0.77922242321806   -1.19322132123366
H          -2.30861110141800   -2.09373967542369   -1.18567743379101
