    26
        -50.46081908  Gyration_radius:  2.43708720801 Dipole_moment: 4.147
 S          -1.64761187562039    1.32673696086618    0.05448547767752
O          -1.30597833900244    1.01297206720542   -1.31839609679767
O          -1.49399711543346    0.16202267505610    0.91779664561580
O          -0.93457405000228    2.47966418359539    0.57597407214432
O          -3.18059582767630    1.71294949871447    0.06133660579860
H          -3.57818333677734    1.04706709886958   -0.49185851349560
O           1.52235655320490   -1.87773974299618    0.50482991613471
H           2.17559769526419   -2.45041422371402    0.10150980894341
O          -1.11484517243097   -2.09210645742340   -0.52156888714601
H          -0.33212857399023   -2.39968526172110   -0.04579649537651
H          -1.37268191471730   -1.27344408389032   -0.05927003752734
O           0.02869259479380   -1.33633370114835   -2.87337201523638
H          -0.44155470795292   -1.73809663793361   -2.11039087214785
H          -0.55789004012846   -0.63559800554620   -3.16905624484497
O           1.20447736681627    0.25574245053930   -1.12059397761534
H           0.29032306898803    0.62304217661387   -1.12599003129069
H           1.41429334574864   -1.10495801511596   -0.09688453639739
H           1.16224826428910   -0.32281222118468   -1.91390297662328
O           0.55118091592581   -0.34483241141168    2.54399902412254
H           1.20592478252650    0.86761868116062    1.86553812031297
H          -0.33266691071030   -0.21684380460875    2.13778111130662
H           0.92866700676891   -1.10454248781775    2.07088545762825
N           1.44214643868823    1.67449725673505    1.18287365748726
H           2.11470565484726    2.33373891027256    1.55839654547312
H           0.49715405805042    2.13725722736588    0.97973305115662
H           1.75494013909070    1.26409786771110    0.29194120104941
