    26
        -50.45942979  Gyration_radius:  2.42430776593 Dipole_moment: 1.897
 S           0.70700435275309   -0.02910461263230   -1.75270712080125
O           1.91433133704995    0.78607812734562   -1.83297201803079
O           0.90874421069042   -1.18223221697103   -0.88659904959436
O          -0.47020670865048    0.72942936864001   -1.39470882258881
O           0.45865445979266   -0.58402391536537   -3.20828551179491
H           1.33140343010325   -0.87391844604082   -3.45112721827922
O          -0.30420269086252   -0.17850661900180    2.44854099158636
H          -0.70557454600172   -0.34602449726024    3.30137241267573
O           2.34821200439137    1.66900740211188    0.47026215222002
H           2.28713489477275    1.41035802241455   -0.52607975665516
H           2.42335186477097    0.72816303833606    0.95163548841095
O           2.15223492650749   -0.64174164298904    1.39834503568760
H           1.80723788037272   -1.02781183810915    0.56387026716445
H           1.36810209087781   -0.56245013668709    1.97816197337972
O          -0.09288383354526    2.01758336060480    0.88631024393208
H           1.36425294207822    1.97934722204778    0.70645929157306
H          -0.38366598489564    1.64995702639641    0.02347907453512
H          -0.28455559999384    1.32227000915373    1.54931728058036
O          -1.21361187764660   -1.81289481505992    0.68350475078131
H          -1.98273175193028   -1.40824492888625    0.21971610369653
H          -0.47407130573845   -1.74473522139006    0.05331043916657
H          -0.71631357259750   -0.83890397130783    1.80385072527370
N          -3.03127034415691   -0.44501321342453   -0.80317291106569
H          -3.47340568444282   -0.91848425949542   -1.58082250657604
H          -2.24130785720997    0.08230301369844   -1.17253197692348
H          -3.69686261645094    0.21959375388605   -0.42912932834559
