    26
        -50.45942955  Gyration_radius:  2.42432453135 Dipole_moment: 1.896
 S           0.12238655603559   -1.44924186227022   -1.20870787020227
O           0.10768142611421   -0.08930477129604   -1.72910625444643
O           1.47328661775824   -2.00037936077190   -1.21426319303067
O          -0.53073736992554   -1.55394919733362    0.07653711263905
O          -0.71317209540456   -2.33535893688491   -2.21114254109107
H          -0.11871657080628   -2.39448829522449   -2.95124699114028
O           0.34906285914973    2.13168258240643    1.20484003155964
H           0.16837246507538    2.93702994602894    1.68990150138166
O           2.83353135950421   -0.60089445646254    0.35541439085299
H           2.40335965283961   -1.27822572005739   -0.29227475613373
H           2.68015696325627    0.32393495020019   -0.13783906387751
O           2.04934363066061    1.46935984199330   -0.80192371507490
H           1.36509259041613    1.00370797422710   -1.33052857821160
H           1.54999263651382    1.92266974762089   -0.09327141486004
O           0.92625107103305   -0.39836304460680    1.95967953731402
H           0.28952885285798   -0.89928184885555    1.40482487442784
H           2.14765202859152   -0.55796811806793    1.16064789266687
H           0.68043448214746    0.54488404060303    1.86023573859338
O          -1.56454752610951    1.61126979353971   -0.43265382328458
H          -2.21998335421105    1.01753070403061    0.00122505593065
H          -0.44403973712602    1.97942646681967    0.59720669118136
H          -1.06266286430200    1.03528759602390   -1.03678730384504
N          -3.06669764360550   -0.34585821778555    0.70680177248348
H          -2.27455412758609   -0.96549381533728    0.54211426765259
H          -3.85496726000361   -0.71289239778557    0.18882178037962
H          -3.29605463286439   -0.39508360069065    1.69149486825368
