    26
        -50.47150110  Gyration_radius:  2.42632859563 Dipole_moment: 3.423
 S           0.02998032519352    1.77941879443454   -0.61160348751714
O           0.89789494432601    1.40726047083299    0.49591632765451
O           0.74777527792190    1.76715385606767   -1.87668438740439
O          -1.19043165004110    0.99881117334838   -0.64999685553663
O          -0.41815895344778    3.27207220086252   -0.35575329787757
H           0.40935775258434    3.74044850485834   -0.38322490795880
O           0.12181444272246   -2.16388840914307    1.25057061191000
H           0.03187971494934   -2.88607291620581    1.87287909704467
O          -2.80007260674038    0.99020909494084    1.47313388509271
H          -3.58677888052889    0.50699906677496    1.21537609508219
H          -2.27635171692178    1.11508322242696    0.65667343416040
O          -0.96061100122417   -1.61446502011579   -1.20237140417784
H          -1.23985801839881   -0.69306214390405   -1.03516635939415
H          -0.67912214715727   -1.95585662921656   -0.33250629064540
O           2.34717772657772   -0.86084832673328    0.29786402271892
H           2.00762858748013    0.03388626912372    0.49485078519502
H           1.70906966298215   -1.46240598482861    0.72494067622112
H           1.92810291214787   -0.89975303789720   -1.22700155148548
O          -0.41849614911464    0.07821668933112    2.43214235632503
H          -1.34075684772290    0.36873673599065    2.31069874214336
H          -0.12837511780342   -1.33018109460298    1.75180304652639
H           0.10374850792027    0.65979809729511    1.84790340213430
N           1.34405856959839   -0.76579530004319   -2.11154194924420
H           1.80110328676890   -1.11818463458227   -2.94475647054037
H           1.15169922722271    0.27221856439957   -2.17372676185082
H           0.40772214070126   -1.23979925341289   -1.92041875856906
