    26
        -50.46133277  Gyration_radius:  2.45167237398 Dipole_moment: 4.989
 S          -0.25703664557973    1.89303348176992   -0.90684880003248
O           0.63211101950219    1.63959621405424    0.20694115200363
O          -0.19669363624575    0.86539168301137   -1.92593890433557
O          -1.63273422513805    2.13237366148147   -0.46907071900472
O           0.23561711064847    3.23717472086736   -1.57791786648823
H          -0.33628117698265    3.31924218855039   -2.33466617066464
O           0.82306736330913   -1.75502137144432    1.53093452262293
H           1.04955705798238   -2.68578685782562    1.53729274556029
O           2.42139236052233   -0.33638996164954   -0.32687445778208
H           2.23407380418192   -0.79908226992449    0.50112745396355
H           1.86974719566790    0.46442583760916   -0.28861124369736
O           1.32382749505177   -2.10076557638949   -2.05850279309490
H           1.15047380085727   -1.59485435998975   -2.85488725770289
H           1.85329579510438   -1.49554510701744   -1.49035747257538
O          -0.76232275408893   -1.34183737299594   -0.62301394430867
H          -0.18298112626302   -1.93400244227868   -1.15407252566893
H           0.24366079589809   -1.61357392590353    0.74724185560271
H          -0.61949584421163   -0.48541379054022   -1.08981304187325
O          -0.03166111049821    0.61304331359833    2.58316879532685
H           0.43475513629962   -0.23515228848468    2.50763704429315
H           0.33716811972825    1.16242752953905    1.86125281338270
H          -1.37942738060363    0.33107523833607    1.88016537995767
N          -2.15327395573871    0.19131729046333    1.14029493975097
H          -2.06178116878328    1.04201792338979    0.48857410965902
H          -3.08065896377535    0.12052487344242    1.54386656820039
H          -1.91439903685573   -0.63421862178675    0.57207783692070
