    26
        -50.46133265  Gyration_radius:  2.45161114543 Dipole_moment: 4.978
 S           1.22522336294227    1.16865770300905    1.26749759324911
O           2.04491838323176    0.45642079309970    0.30886207025258
O          -0.03125930388918    1.62384961225776    0.71134889908431
O           1.03481867595160    0.38977849697641    2.49162670705379
O           2.02734567773767    2.46531397686894    1.68566939072736
H           2.86538409327582    2.11466695139882    1.97084283754539
O          -1.89419324910719   -0.66611225557912   -1.43642656380331
H          -2.08198627348549   -1.17629461998268   -2.22516215791019
O          -0.08400292728649    1.43714213024543   -2.00044585056522
H           0.08681691970540    1.63036712542384   -1.06210728349890
H          -0.93932365987168    0.98643287768253   -2.00309450155576
O           1.48056647350453   -0.62052186121059   -2.79737860263993
H           0.94718778491036    0.19134593955734   -2.63654061929152
H           2.36530883618650   -0.39010096698606   -2.50680766564480
O          -2.41953887481006    0.45859052151164    0.99350787961566
H          -1.68005816684812    1.09920172214531    0.95095201890381
H          -2.54868834194057    0.17243284484094    0.07477269589942
H          -1.58405994270489   -0.69235125786065    1.59965109687915
O           0.50360264464661   -1.50555283783435   -0.50570268063420
H          -1.02263483997488   -0.97996398360035   -1.10178871590262
H           0.84354267347544   -1.53595384566283   -1.42862091998573
H           1.07536751994659   -0.79718375689230   -0.12734157665869
N          -0.77252782616978   -1.34238292063253    1.89061782793226
H          -0.38457262872747   -1.77858443806013    1.04174383338711
H          -1.04447249748102   -2.03162546351752    2.58267413574386
H          -0.01276451327346   -0.67757248714391    2.26165015181434
