    26
        -50.45942972  Gyration_radius:  2.42426616199 Dipole_moment: 1.896
 S           1.76368002588594    0.67811363068304   -0.03458738614022
O           2.34018750307471    0.54282259415506   -1.36798061859675
O           0.64475592085467    1.61000973412997   -0.03786295614659
O           1.42257282693645   -0.58978401447494    0.56998338430059
O           2.89183893772044    1.31593119088169    0.86474474938215
H           3.20987976128954    2.01382941668696    0.30217846205767
O          -2.39092852011109   -0.44172457409375   -0.45612724190352
H          -3.31626600714916   -0.64430847932628   -0.31754092273407
O          -1.05169646537943    1.28971405655983   -2.05718496326743
H          -0.46784286179308    1.62044172963216   -1.34007345337750
H          -1.72805363458999    0.75172021747368   -1.59866358445371
O           0.56461783264260   -0.45195201228289   -2.82778498055203
H           1.39690106697841   -0.07027847644601   -2.35363777778237
H          -0.15745638131818    0.30924809613099   -2.68106421369499
O          -0.21850063001071   -1.95803146777909   -0.99169434075350
H          -1.08841206687935   -1.56623104264537   -0.76875285638737
H           0.23785091746879   -1.21915404665111   -2.17575021611328
H           0.40876856108543   -1.61268491334827   -0.31978071818670
O          -1.44625413384035    0.88547647973381    1.53398751086603
H          -2.08207341493675    0.06118107705312    0.36430108865984
H          -1.04954028338097    0.26602789613029    2.18911266685132
H          -0.68747490958937    1.28508102439935    1.07220856023589
N          -0.01797586450861   -0.86271271879887    3.04730768016149
H           0.46664091789410   -0.50973132507932    3.86277466627311
H           0.65047125713752   -0.88684435696133    2.27842866011058
H          -0.29569032545285   -1.81615971579851    3.24345880121070
