    26
        -50.45942976  Gyration_radius:  2.42421465645 Dipole_moment: 1.899
 S          -0.47431642354644    1.69443641892523    0.68785119882032
O          -1.51927543568972    0.81663135161398    0.17989419801696
O          -0.44168226386569    1.68511553478032    2.14640860600801
O           0.81241078031316    1.42389173375875    0.08744293633527
O          -0.86465920744445    3.16468371650684    0.27041920798009
H          -1.58791718621599    3.34331018458672    0.86180652732285
O           0.11145631456591   -2.41935411453912   -0.50554146028720
H           0.22431002710526   -3.23898138044262   -0.98719761018677
O           0.15858670877019   -0.64474180809275    2.84262931303114
H          -0.65460794115310   -1.12968796021009    2.36752610672786
H          -0.06545249333115    0.35355578078143    2.71423839619162
O          -1.64407596231907   -1.55425100066635    1.37194936436327
H          -1.81562574042988   -0.69615615373094    0.92599048690529
H          -1.13259879703327   -2.07496722271157    0.72049435758428
O          -0.84481690183966   -0.59104007632668   -2.04079891878285
H          -0.10884696485210   -0.07112152271226   -2.43878842092960
H          -0.24825062440014   -1.74561153448749   -1.16749505697280
H          -1.21106380087255   -0.01780796220823   -1.34372581566934
O           1.78352559868950   -0.87944042701179    0.95663362717127
H           1.32743416102315   -1.52568634734620    0.37846455670907
H           1.59692564210607    0.00291823939835    0.56823134974270
H           0.95924122012191   -0.80772159079522    2.16956448676796
N           1.22406883441808    1.02892418009702   -2.73406737687516
H           2.15742395543683    0.70868608968227   -2.95981693011236
H           1.22869143575625    1.33616266200194   -1.76238897749000
H           1.02911507468937    1.83825319915930   -3.30972415236879
