    26
        -50.46116152  Gyration_radius:  2.44782161719 Dipole_moment: 5.243
 S           1.44407383749799   -0.86668370221723   -1.29183378470054
O           1.30736058356881    0.08022364548705   -2.39968324008001
O           1.85557577964008   -0.17649272833106   -0.07580389029405
O           0.27115754879374   -1.67965228303506   -1.10213727896871
O           2.62538790624729   -1.83709184277262   -1.68703488545976
H           3.34860131738644   -1.23729761194577   -1.84049995987908
O          -1.04600131225670    1.16245845168283    1.92111111609860
H          -1.78301229910639    1.14515939601219    2.53270089852220
O           0.49331220869229   -1.20230711648021    2.05380924144788
H           1.05291303694466   -1.00637865525862    1.28323806922532
H           0.13159099917550   -0.34569704823033    2.32081495793334
O          -1.82198271474951   -2.37933007358001    1.25172657773206
H          -0.98178894598293   -2.06174892899678    1.65079553534710
H          -1.54440308459876   -3.00927366015014    0.58303670043536
O          -1.74532105572932   -0.22225073354176   -0.27672480625018
H          -2.17132379019718   -0.92153580074488    0.26606078061213
H          -1.33397388839606    0.66507978219166    1.11897352995514
H          -0.98498165499292   -0.73115663467367   -0.64603038000382
O           1.00935339428721    2.27510004655739    0.51949872627244
H           1.50187483522400    1.43754588635414    0.37594869082160
H           0.11316709401791    2.16893787421509   -0.72774568719582
H           0.39929747311480    2.08265451642028    1.24992023281718
N          -0.43502453204113    1.79085696810079   -1.58028290990584
H           0.25826807086959    1.11614213148008   -2.05014396589974
H          -0.73746982414464    2.52275618011397   -2.21350316247221
H          -1.22665098325478    1.22998194135321   -1.23621111610537
