    26
        -50.47150111  Gyration_radius:  2.42624596194 Dipole_moment: 3.427
 S           1.27012131138339    1.38630520202179    0.07740431518981
O           0.55349091430274    2.61702229998233   -0.21869199754328
O           0.81163421838107    0.79069616954412    1.32367829548011
O           1.25624293553633    0.44801668103069   -1.02703761306081
O           2.78417465750038    1.78043192309668    0.29224723806567
H           2.72966901682241    2.42427907515837    0.99039331159258
O          -1.49152204714937   -1.97863063771661    0.34628608884506
H          -1.86802058982240   -2.84547897332748    0.50032885965738
O          -1.13445944456721   -0.41947522969850   -1.87494926997853
H          -1.32770792903965   -1.09592368932190   -1.19860220002563
H          -0.19608105977364   -0.18402959333757   -1.73732272608176
O           2.64500331489015   -1.81716249585865   -0.83069223904420
H           2.58850136021723   -2.24454878651151   -1.68679700193910
H           2.25928896463747   -0.92564816845588   -0.94449831912466
O           0.92439941539868   -1.89901410457201    1.28013988469742
H           0.97244884713517   -0.93584976306707    1.42947339885909
H          -0.55118046940459   -2.01592844775124    0.69747176344351
H           1.60626046766584   -2.07967717081512    0.60768936532020
O          -1.83643993982811    0.40430142675460    1.67274074512605
H          -1.88199723558124   -0.50911295122009    1.33352258256481
H          -0.88067656601454    0.57714694235668    1.77907147778597
H          -2.05504508358518    1.28987149095577    0.38034684959609
N          -1.87786605141326    1.73022629342523   -0.57680345488313
H          -2.62173278157231    2.35332642271614   -0.86961055575175
H          -1.72828482632476    0.91754381095058   -1.25130152071341
H          -0.95022141978886    2.23131226366465   -0.49448729806622
