    26
        -50.46116137  Gyration_radius:  2.44793504835 Dipole_moment: 5.239
 S          -0.34710659471324    1.70721607670268   -1.21302638714970
O          -0.43798309557105    0.36590928467898   -1.77606605433683
O          -1.62711157457497    2.10637977046040   -0.62560330681563
O           0.75776516700875    1.85619956490029   -0.30216970224638
O          -0.09221289766408    2.69210697843061   -2.42066267694888
H          -0.87260783358262    2.57824883170662   -2.95393904502926
O           0.29556884005821   -2.34716032714272    0.73381186666701
H           0.82681411232057   -2.93070369074113    1.27672728976497
O           1.84838914481911   -1.01103220141547   -1.21111550114393
H           1.14526249466517   -0.41072005994792   -1.51206517235303
H           1.38283360428782   -1.73643733075295   -0.77189384211610
O           3.10178633215797    0.03196848237859    0.96372796870674
H           3.21130224851330    0.96063988658027    0.74785813080071
H           2.78951709761675   -0.37751034846731    0.12655304573587
O          -1.90878504113190   -1.54705908623781   -0.65445643603830
H          -1.43675366029899   -0.92075354012510   -1.24572096332358
H          -1.21338862971605   -2.12123043295348   -0.29464541628319
H          -2.16976071495746   -0.54874610458923    0.48813282500250
O           0.55974479953437    0.15610456155697    1.68324943010681
H           0.57284064518872    0.82377368167881    0.95694699119023
H           0.39502875646991   -1.44155356348956    1.11286250768467
H           1.52479436910128    0.03185288561203    1.81862362338968
N          -2.11624449200621    0.30550662473992    1.14965514108691
H          -1.99707065272505    1.13889963142864    0.48045770010057
H          -1.25446748097733    0.23207237403200    1.70787398785038
H          -2.93815494385326    0.40602806100991    1.73488400571991
