    26
        -50.46061525  Gyration_radius:  2.5439373971 Dipole_moment: 5.982
 S          -0.37575138942880    0.22298088268190    0.24045226592073
O          -0.38683709577464   -1.29422824734496    0.56123244993612
O           0.98375404853191    0.53567680637858   -0.25533978253743
O          -1.34073982381790    0.38805876490699   -0.83970865656610
O          -0.68937500480918    0.97141898743691    1.43041991343786
O          -1.16304712417395   -0.17594405207936    3.78386345494611
H          -2.07678595585881   -0.46355491895815    3.79697473328372
H          -1.05423691080644    0.35200804376982    2.96551400059577
O          -0.72585410946725   -1.80166612500141   -2.13371159681994
H          -0.54637579831839   -2.44447960694299   -1.44148131836726
H          -1.15169542581489   -1.04607923774059   -1.66396629785857
O           2.04020899818368    0.83250404602182    2.18650280890387
H           1.37187549561280    1.40125841554354    2.57993664437199
H           1.81131874835490    0.79646469087036    1.24033137728455
O           1.16335597550020   -0.16217643453392   -2.62293366242391
H           0.51996604354388    0.63396700222518   -3.01725395244140
H           1.22604646758406    0.12815755765143   -1.61479910107082
H           0.53243805234162   -0.96027364476922   -2.57639250392231
O           0.90495040718051   -1.52188735164394    2.70534270659668
H           1.52566927009333   -0.76093106824484    2.62412663213841
H           0.21793043185586   -1.21606646868673    3.33141291240599
H           0.15770207010591   -1.44581598484052    1.42677719276534
N          -0.52600711702743    1.60608910886827   -3.20160180572409
H          -1.04494703050719    1.37538773364742   -2.34615731546001
H          -1.13373558554880    1.47390768768316   -3.99946822227185
H          -0.23982762753060    2.57522340309827   -3.16007289712723
