    26
        -50.45023534  Gyration_radius:  2.51052705501 Dipole_moment: 0.824
 S           0.90370896818155    1.81494144542383    0.26468357810615
O          -0.39506597550232    2.23210804555095    0.74496330316235
O           1.51407763088563    0.82957899144980    1.16242172576672
O           0.91671505749733    1.36451367339545   -1.10929739335137
O           1.83005920508485    3.09601669965510    0.32717156999941
H           1.54246192407346    3.46778010423312    1.15355682140384
O          -1.79972051525703   -1.40979874688615    0.71269005645804
H          -2.55332313700219   -1.76477785374400    1.18688572587695
O          -1.26925856986962    1.03761307905083   -2.59573817579015
H          -0.42263617410902    1.16084306257386   -2.11714193228283
H          -1.39358241195602    1.82922189815222   -3.12126672581197
O           1.92030759234435   -2.49427770411462    0.95949614342010
H           1.51044567141562   -2.21603840083003    0.06761560299005
H           2.74134648028690   -2.00239822557260    1.03360966172037
O          -2.47544455767264    0.88223480121019   -0.18092481851150
H          -2.24264334957520    0.88589629969512   -1.13101717658682
H          -2.10011585434797   -0.50837145879238    0.34778934011993
H          -1.80993775176854    1.47015330545719    0.23476611967766
O           0.25714486686297   -1.05549665423454    2.15553662412437
H           0.93416626264361   -1.77227099513682    1.78447318527872
H           0.71345241968535   -0.17712498369200    1.81073388134688
H          -0.60415119569810   -1.18808615917043    1.59867620319316
N           0.72117707237811   -1.51068678067554   -1.13110423177064
H           0.91618491787586   -0.50895876846268   -1.11437421750530
H          -0.27525118439670   -1.62229702298050   -0.97708131952078
H           0.91988262797639   -1.84031765154210   -2.06712353148270
