    26
        -50.45023536  Gyration_radius:  2.51057542182 Dipole_moment: 0.828
 S           1.42201723925409   -0.73614063833269   -1.27116577971297
O           1.92769798072812   -0.77851842987795    0.10427859203351
O           0.45964057316017   -1.78853993729586   -1.51153064380855
O           0.96286553960824    0.58721818693918   -1.63003170781477
O           2.66194914988759   -1.05029013126452   -2.20235427262638
H           2.70968809702333   -1.99430827298135   -2.10063027591147
O          -1.89175407915941   -0.56522573620018    1.35430781574718
H          -2.57292974579999   -1.05381536905047    1.81910701108883
O          -1.52254062459338    1.14653843347186   -2.40788933848168
H          -1.54059497013925    1.15387316110126   -3.36594932311111
H          -0.58509080612228    1.00964294549333   -2.15608265985072
O           1.30061087816274    1.08913025093669    2.82004244817077
H           2.21957419364431    1.09613862184538    2.54259546354471
H           0.77909486196667    1.52977010405733    2.06187601845190
O          -2.08225657025861   -1.16314502724336   -1.11850853313180
H          -2.00190135301569   -0.80191002608900    0.37054081887417
H          -2.10247380836265   -0.31503161366711   -1.60551587952194
H          -1.19459119756188   -1.53267629906432   -1.31049523365743
O           0.47147737335589   -1.15033819752482    2.06917512831017
H           0.80037510912329   -0.27065153751860    2.54647290047831
H          -0.50187134151103   -0.95074263918877    1.78227008706723
H           1.05960499318722   -1.11882403631588    1.20217580616372
N          -0.04770265837423    1.88035646754157    0.73884521407928
H          -0.19153077589266    2.86117397271556    0.53487010638362
H          -0.96310923366818    1.44768325486788    0.80097125668415
H           0.42375117535088    1.46863250264775   -0.06737501944809
