    26
        -50.46281212  Gyration_radius:  2.46865638957 Dipole_moment: 1.922
 S          -1.53626639778023    1.14844736388343   -0.94254358474343
O          -1.11959067888608    1.24796012732942    0.44968335685796
O          -0.38878279167122    1.04763258339344   -1.83604282631155
O          -2.51205501627779    0.10283655927999   -1.16296401940262
O          -2.26427174477498    2.51147945549571   -1.28756990239680
H          -1.65822203177119    3.19468800264945   -1.01395301316000
O           1.36272595442075   -1.16128031455108    1.75974373481882
H           2.17712684526985   -0.65495783646468    1.80958540747397
O           1.33669032754809    2.16188453114260   -0.18788615417840
H           0.67344470649625    1.98150685748599    0.49391094667621
H           0.87699721820745    1.87418310636136   -1.00036395896060
O           3.07183934206464    0.13166957301052   -0.22335134897497
H           3.84903694746020    0.39103314660847   -0.71860828684414
H           2.51235521120701    0.94221110352737   -0.14760695875942
O           0.82425275600722   -1.19472128936039   -1.04634525555199
H           0.36853801619934   -0.42078039607745   -1.43764062764683
H           1.75272003294990   -0.90933518993358   -0.96010618012390
H           1.19073365177654   -1.25288543866689    0.80977102628406
O          -1.23485108130922   -0.70670121053823    2.26691147290181
H          -1.47889400257934   -1.60538744719363    1.05380921239403
H          -0.27540603806883   -0.84578619994740    2.39092729722758
H          -1.29985314580569    0.13588325565516    1.77296248600533
N          -1.54850623258345   -1.98661203916289    0.03913168289470
H          -2.01588164286040   -2.88445066577964   -0.01965254614215
H          -0.59753501051474   -2.01941037302893   -0.36351663224622
H          -2.06634520474182   -1.22910724512544   -0.49828534809339
