    26
        -50.46415465  Gyration_radius:  2.51994320795 Dipole_moment: 6.940
 S           0.39214116944893    0.40669223624847    0.13974235094897
O          -0.79989627267485    0.24495714369824   -0.69348347077195
O           0.38971114387631    1.64831046040231    0.87409453044545
O           0.45277740011265   -0.77945773917635    1.13080631652822
O           1.59247292601982    0.24661898880226   -0.70169303771165
O           0.34988534762109    1.72842522811161    3.52920712274458
H           0.40883731607550    1.81978404065092    2.55455162968810
H           1.24714765742074    1.59928925314764    3.83920947966586
O           1.32087569754165   -2.42354945877084   -0.94009567128253
H           1.56304637171908   -1.49190434275863   -0.77973829933672
H           1.09441137907020   -2.76753536961304   -0.07263809642199
O          -2.42983551855345    1.37512837483161    1.08169712441206
H          -1.91495004240893    2.16119214140942    1.28633398153333
H          -1.96745889076146    0.96473187748451    0.32646557192062
O          -1.31278971898899   -0.27653392172266    2.85090866802200
H          -0.81943512795179    0.38909272371051    3.37228606501251
H          -1.94336818441197    0.24936488092843    2.30655706191146
H          -0.27707081962335   -0.64062162877872    1.84839125216610
O          -0.73799185851518   -1.68928077230124   -2.47057065370360
H          -1.05137321925999   -1.06548056565662   -1.77832825902726
H           0.17963694909676   -0.68536287365960   -3.06113500130548
H          -0.08046668149451   -2.24776672821242   -1.99978230327586
N           0.91940316652562    0.12823040733654   -3.18091628479688
H           0.46927005422647    0.97582428962777   -3.51060800295691
H           1.68834755056931   -0.13958149735502   -3.78692004268238
H           1.26667219531335    0.26943285160909   -2.16434203173450
