    26
        -50.46281194  Gyration_radius:  2.46852797562 Dipole_moment: 1.921
 S          -0.34701304452547   -2.07922497250249    0.34811688944910
O          -1.27533226371138   -1.59627862997676   -0.66684461758652
O           0.95236843464108   -1.43066373723144    0.23337376257850
O          -0.89324055832692   -2.00838616624352    1.68622232303195
O          -0.10454545240527   -3.61527564628096    0.05080645901177
H           0.37683300205360   -3.63854697956007   -0.77179316687167
O           1.10725813471639    2.25334828586701   -0.04430457815968
H           1.30174364448608    2.40921075482823   -0.97166738098837
O           0.57453017060486   -0.78404698701063   -2.35644028864792
H          -0.26084187264121   -1.13075817589508   -1.98776975130974
H           1.16889716815590   -0.83821866714024   -1.59397503472028
O          -0.32497190290416    1.72489522930920   -2.53464482492191
H           0.08408106906033    0.82609348143038   -2.55634635962137
H          -0.72636137332214    1.85468091921962   -3.39407781014327
O           1.89025569381056    0.49547184140942    1.82874848428273
H           0.44205489217345    0.58445200822653    2.31057649537568
H           1.75906258214652   -0.30974449079211    1.28776356243691
H           1.89953229358600    1.22775714363922    1.18151382754661
O          -1.46524110867877    1.01500098177520   -0.15067846296491
H           0.20507203006410    1.89763470621048   -0.04114928434015
H          -1.32795501116208    1.41174881109536   -1.03085249724667
H          -1.50667563305569    0.05144876300343   -0.32317759096126
N          -0.63599783169800    0.47708051035312    2.39074534560309
H          -1.00666116339200    0.81036065408278    3.27367131621769
H          -0.81418561331104   -0.56141211443128    2.24760349873847
H          -1.07266625634036    0.95337246663023    1.58457967421003
