    26
        -50.45345962  Gyration_radius:  2.47873831194 Dipole_moment: 3.255
 S          -1.96038568623794    0.69051233809723   -0.22414255064754
O          -1.45806289561536   -0.47545743520812   -0.94283612415386
O          -2.94321502022220    0.39530884502978    0.77757906100314
O          -0.84886040897673    1.50735597758247    0.26113825992689
O          -2.68417885694299    1.57272060041894   -1.33301724574850
H          -3.32718717444847    2.06183726414242   -0.83032095407655
O           1.88978813416844   -1.56473684465108   -0.51982609429511
H           1.61596313899912   -2.48254899989402   -0.51322309138561
O           1.17505384482779    2.06716231875338   -1.29671529311001
H           0.38402803292971    2.08126893750736   -0.70823186834197
H           1.93530872443713    1.87476915713467   -0.69780570634596
O           2.94627025449695    1.04004936335011    0.42940418738633
H           2.32356530128130    0.75030643306865    1.11042279378380
H           3.29199075776493    0.23523593100126    0.03249095973639
O           0.68149748583888   -0.32400963463375    1.41701649112450
H           0.14982823603925    0.41533398658914    1.05634475041144
H          -0.00912178568780   -0.94848394041655    1.75670440738873
H           1.43311818943329   -1.12871871897494    0.26271084147337
O           0.63120556928724   -0.15400522757219   -2.24827010164482
H          -0.30896170200081   -0.28461635157644   -1.80958067505613
H           0.91472912124599    0.85862025782298   -1.95523323772996
H           1.22462351063420   -0.76288938634515   -1.68611356054376
N          -1.49305933297625   -1.78047511128722    1.92542304159156
H          -1.64197983542433   -2.56493278946610    1.30241177336572
H          -2.09675442146589   -1.02829975145262    1.59037919867523
H          -1.82520318135260   -2.05130723898025    2.84329074722562
