    26
        -50.45345974  Gyration_radius:  2.478897329 Dipole_moment: 3.259
 S          -0.22343722408920   -2.07293352259641   -0.15315288773746
O          -0.51366625021659   -1.17402256614473   -1.26490922576429
O           0.92854752450419   -2.90519335250603   -0.34489390349209
O          -0.21616792278110   -1.33531598491597    1.10935156593597
O          -1.48270742952325   -3.04217861087542   -0.07242257186028
H          -1.12198352567277   -3.82787443226998    0.32499408354628
O          -0.12922547713887    2.33307117094348   -0.91174363526791
H           0.25104640333004    2.40362438828020   -1.78799999730857
O          -0.35117656046736    2.37367192649613    2.04687524199361
H           0.45923014462318    1.88167859606383    1.85538217481541
H          -0.46021207956149    2.99107997060051    1.31771927220395
O          -2.10474227979364    0.38687077387989    1.66046991406165
H          -1.47182679870320   -0.36883411090703    1.63695238654763
H          -1.57491805309684    1.15387026418373    1.98401643781806
O          -2.08996228356237    0.68868609263468   -0.79790404439538
H          -1.41905620053225    1.44900481513645   -0.90188114460291
H          -1.52271177999449   -0.15163729460268   -1.05393809395213
H          -2.23056332334300    0.58706900711391    0.27983516591158
O           1.34045048254432    0.72439668967720    0.50372577971716
H           0.48496635320476    1.73588372324954   -0.38540498750021
H           0.79896675113124   -0.02870377702025    0.81835734106913
H           1.97001007337595    0.29510588574998   -0.13009564451725
N           2.61736003247889   -0.79815634204711   -1.27374951641985
H           2.35645858167201   -0.64542714677075   -2.24032885461564
H           2.10215223872402   -1.62318168825595   -0.96330096228541
H           3.60316858289159   -1.03055449507578   -1.25595388391352
