    26
        -50.46516759  Gyration_radius:  2.53869689896 Dipole_moment: 5.802
 S          -0.22317056860374   -0.54785792950209   -0.18921681446626
O           0.84623208271442   -1.55814132152733   -0.14188446064145
O          -1.50485974629032   -1.08728244560205   -0.56371794075894
O          -0.28407029531495   -0.03192451759749    1.28389059638653
O           0.18594253642410    0.58248920060175   -1.01800772142071
O          -3.66841774941992   -0.99460356661574    0.97860596481412
H          -2.93157908816053   -1.11346749942290    0.34323418591172
H          -3.70247110649022   -1.79692311862884    1.50075371314737
O           2.74703936708424   -1.12669508823778   -2.01258399099514
H           2.04110663436734   -1.40381878170425   -1.39531545140017
H           2.36647621015612   -1.18399661056482   -2.89030673418195
O          -2.25892958687325    1.61786756342142   -1.20592883422651
H          -1.32087537176562    1.35261676183553   -1.25978112437360
H          -2.75337997122437    0.84120845104276   -1.48225145741533
O           2.70924386525013    1.26775683797367   -0.79362941392300
H           2.68479903584854    0.54659498515167    0.51296199554168
H           3.02612500950388    0.55523965795654   -1.38565591876197
H           1.73563270976940    1.25558903915711   -0.94733423413863
O          -2.39119131204274    1.33274317453890    1.43504191809427
H          -3.05029916603964    0.61079720932213    1.46338611283826
H          -1.12953879833796    0.55497499438630    1.39213046256959
H          -2.43400223571561    1.67019580133142    0.50952361050038
N           2.42851862708671   -0.16123505260380    1.31700887274372
H           1.82438380970156   -0.88721417969853    0.79689275026119
H           1.81274518134250    0.28152797158368    1.99718691307366
H           3.24453992703541   -0.57644152660878    1.75499700083970
