    26
        -50.44895812  Gyration_radius:  2.52238210105 Dipole_moment: 2.913
 S          -1.91461522793980    1.13958903392342   -0.77999187395316
O          -1.00513957156234    1.55016008682373    0.29898065772449
O          -1.34910804190475    1.43701011242471   -2.08100080055994
O          -2.35209393206185   -0.21921203096961   -0.59159391111248
O          -3.19309379524415    2.07087235152200   -0.65696841336983
H          -2.96059029985819    2.78943136707882   -1.23546128139710
O           0.08356029018455   -2.23765657668784    1.19903242604039
H          -0.46223662156609   -2.95062967490499    1.53489409430300
O           0.91878561541359    0.16948844064749   -2.21632780524830
H           1.18682747258186    0.22272062556059   -3.13574103944771
H           0.09236362134602    0.70952667820982   -2.14961561587229
O           1.54407627540546    1.30040635621117    2.20937103146291
H           1.21154338914308    2.06664796947538    1.73310171931954
H           1.98195930523993    0.71409390321599    1.50935847771704
O          -0.60539301319167    0.01813527004370    2.18579382481573
H          -0.92993330919939    0.61746997623772    1.37870669058035
H          -0.35732489786761   -0.90232478994992    1.79975111571051
H           0.30606389973074    0.50428825268137    2.38475950672241
O          -0.51321227349043   -1.97090767810041   -1.28789518489097
H          -0.12025940451387   -2.18141079837569    0.21042491051607
H          -1.32053842959037   -1.43549892345142   -1.13378688523761
H           0.11193392067093   -1.35140763010057   -1.70540383978573
N           2.37255015435101   -0.32917053351384    0.33114586243816
H           1.99748375135768   -1.23363491449902    0.59436308802371
H           3.35909041421941   -0.44595691787837    0.13968941781075
H           1.91730071833193   -0.05202996562728   -0.53558617228402
