    26
        -50.46133348  Gyration_radius:  2.45312644315 Dipole_moment: 4.924
 S          -2.02219953783417   -0.38722295210751    0.50046532066098
O          -1.58409455380455    0.83485141932865    1.14296471216693
O          -1.46334531953280   -0.56353451030880   -0.82321375428315
O          -1.79251671162514   -1.55327339112467    1.35410425134985
O          -3.58831612673622   -0.27332619567823    0.31481171487833
H          -3.89416969910639   -0.08199144334803    1.19597302453526
O           2.07000503443110    0.18914543240263   -1.32674062263941
H           2.84643726944417    0.74431691761543   -1.40793861647643
O           0.72332889358378    3.13314133333069    0.30166606754583
H           0.33510396298221    2.74012601459673   -0.51361179494285
H          -0.03365173729474    3.39441105513442    0.82963363218239
O          -0.28512261467244    1.70055179115022   -1.75754110080992
H          -0.87292208765521    1.00308471955237   -1.41811441415404
H           0.51951262025008    1.23274611351847   -2.01917535499096
O           1.03343381680346    0.64219926983420    1.13303480068504
H           1.21872123648587    1.60217760789161    1.02118148224995
H           0.04874748610224    0.65197290803150    1.17875104330530
H           1.70034572919431    0.35597393196997   -0.42936217038001
O           0.61018229289679   -2.11044522386916   -1.49374364366297
H           0.78713323221942   -2.22036950139696    0.03870587412823
H          -0.25830040198147   -1.65967711470103   -1.45468787736896
H           1.23836783386302   -1.41072022918429   -1.73520693306885
N           0.71972220511886   -2.05811924661915    1.10388229750233
H          -0.33290019610953   -1.94928049203919    1.29566121877666
H           1.14778593515441   -1.14645022136734    1.32155191501143
H           1.12871143787064   -2.81028799269373    1.64694895778187
