    26
        -50.46159817  Gyration_radius:  2.41880647831 Dipole_moment: 5.760
 S          -0.31555355734553    1.72668018076806   -1.03659061906025
O           0.49975512783748    1.46479488800132   -2.19509337299137
O          -1.53316151109869    0.91359942535720   -1.01142133698696
O           0.38461924237655    1.61213614339729    0.23108284269316
O          -0.78639654113638    3.23202498280487   -1.17173264731367
H          -0.47338838754939    3.40298845559556   -2.05226248657820
O           1.14943698871364   -1.64595524709708    1.42797207607442
H           1.67329442704996   -2.40258187799977    1.69220791333557
O          -0.73964796554828   -1.72816348094141   -0.56955047306645
H          -0.83058618642891   -0.82613714947907   -0.91541134939086
H          -0.00722171813046   -1.72500202777184    0.07679468352112
O           1.61805307312112   -0.97491238958032   -2.25695813242566
H           1.23936078983398   -0.09090433783533   -2.42333341872716
H           0.87396444762136   -1.56295825998213   -2.08915843843734
O           2.56462173925395    0.02106715596133    0.06970614046784
H           1.93368540242776    0.76249634329774    0.10061867857677
H           1.78228757208429   -1.01730434605923    0.95674894822893
H           2.46972779582273   -0.35994100607628   -0.82785618770300
O          -0.30641889278192    0.37321750051004    2.49435873014046
H          -0.00191610378309    1.00831852372132    1.81286584201662
H          -1.59479549398670   -0.08039017321820    1.82475023876710
H           0.28316780646156   -0.39546152512226    2.37258502061976
N          -2.34089250066421   -0.36879250402396    1.08891258158920
H          -2.20398039259644    0.31365407319437    0.28627492554879
H          -3.29014698657354   -0.38030768364776    1.44299818832331
H          -2.04786816497008   -1.27216565380086    0.67149166276079
