    26
        -50.46400326  Gyration_radius:  2.43637513724 Dipole_moment: 6.322
 S           2.19132316808688    0.40486757350467    0.32916488150659
O           1.98391166398528   -1.01047625192633    0.52441663623700
O           2.67152333752245    0.74385565101044   -0.99103964892627
O           1.02460567430090    1.19615177353065    0.72736665309310
O           3.32741725452909    0.85264955117272    1.34955265183703
H           4.08711009880866    0.41142122723903    0.98520322722270
O          -1.26457523912455   -1.78944021481387   -1.15125065396547
H          -1.45311072977687   -2.43498669652802   -1.83328078177816
O          -0.62136143318799    2.19335563432945   -0.99081553920903
H           0.07195585344150    1.86023786063186   -0.35580046899932
H          -0.51219370264955    3.14463424778525   -1.01934843553653
O          -0.86241125255607    0.09982556901570    2.21056949532041
H          -1.76193006918721    0.27252630848435    1.09601495325290
H          -0.07571656996982    0.56487370538244    1.84704040081874
O           0.48585754404094   -0.13022815999645   -2.14843262488641
H           0.04259733962699    0.72787806861828   -2.12664920789559
H           1.37767027319114    0.04817633471821   -1.78280904801974
H          -0.50471377408861   -1.24381594392299   -1.49558526158166
O          -0.15763421669758   -2.28734978073194    1.40975888526571
H          -0.63256790898606   -0.86480651675138    2.11876981025488
H          -0.61765307086005   -2.36135088617947    0.56192865593322
H           0.73040634392667   -1.95210492914202    1.16645128483818
N          -2.29720158751415    0.37115225762335    0.11851804537336
H          -1.84266841762716    1.16425749735190   -0.37521797053202
H          -3.29241886441721    0.51947024984423    0.23555449275126
H          -2.09822172480985   -0.50077413024704   -0.41008046239228
