    26
        -50.46400403  Gyration_radius:  2.4365415901 Dipole_moment: 6.318
 S          -1.46713500807281    1.36042179541597   -1.03632435558667
O          -1.72197097720324    0.02041854665932   -1.50956622049866
O          -2.34796996673419    1.77515429176075    0.03154097444060
O          -0.05341908992292    1.57753806045157   -0.71969945621070
O          -1.74419963009132    2.34323615273489   -2.25682443451699
H          -2.68486788536975    2.24792895562591   -2.35979571249886
O          -0.16473427208025   -2.24489392052574    1.02896591339735
H          -0.56398872959939   -2.95645879557439    1.53070734556616
O           1.76372975991255   -0.12852286223955   -1.58524534701178
H           2.03210839298594   -0.45677118878445   -0.20623976789998
H           1.12812078506237    0.60916165689786   -1.44679536798901
O           0.83196240391142    1.60744984966357    1.70328628575029
H           0.44871951030893    1.66569721629249    0.78423188485678
H           1.07364103654286    2.50326528535108    1.94155608204925
O          -0.04412782831711   -2.00603872281119   -1.79205751576781
H          -0.09591044191945   -2.33870085125603   -0.88507399408955
H          -0.75237291964349   -1.33022875083120   -1.83515390976629
H           1.18556750041920   -0.89441638717937   -1.85168674142252
O          -1.44304404769494   -0.06212433095335    1.67012435964728
H          -0.76433399445914    0.50870478656177    2.05328220284770
H          -1.92688503454370    0.52065270379400    1.04784529447249
H          -0.74129628169875   -1.44635761691467    1.18311405476009
N           2.04354545512071   -0.67940670192123    0.89007493156373
H           2.95495945864171   -0.97990560644037    1.21436435663877
H           1.32066323169604   -1.40928270099060    1.04500750149586
H           1.73323856274234    0.19347913519736    1.36036161577227
