    26
        -50.46133291  Gyration_radius:  2.45196114338 Dipole_moment: 4.955
 S          -0.59939499638949   -1.87709377538572   -0.77102822831404
O          -1.57102508184429   -1.41407263215495    0.19833791383618
O          -0.04481372188016   -0.80728870695309   -1.57310869255076
O           0.44255371973508   -2.68761630162429   -0.13975209792056
O          -1.36508657956798   -2.83537672274798   -1.76853738212820
H          -1.77072653593964   -3.46998001611182   -1.18603366592272
O           0.89032061831251    2.30034154661592    0.09255659078348
H           0.74657053136419    3.13063983971696    0.54825298645324
O          -2.52006114140246    1.64379260662101    1.16322283744464
H          -3.12805498044391    0.90351711873272    1.21312030743591
H          -2.24325173058243    1.67467599218396    0.21869408891440
O          -1.43850094349060    1.51159326628022   -1.31171460826001
H          -0.63946813901467    2.03307190267219   -1.15524282894093
H          -1.11230790300574    0.60945939833717   -1.47580505266696
O           2.31955015875267    0.39123695795639   -1.23379643474532
H           1.99841543773992    1.26774562638820   -0.96694495326619
H           2.32042059719138   -0.39659962966625    0.09681402255986
H           1.53265655776783   -0.05685065144278   -1.60660929164854
O          -0.24851820883686    0.36502138969677    1.60373027530410
H          -1.01268346055151    0.96104186612846    1.77479606312730
H          -0.69212954665577   -0.35554468791989    1.09807953475421
H           0.47689014167152    1.60108501933638    0.64931444009685
N           2.02519309249593   -0.97853696746534    0.95689221087464
H           1.37657406228742   -0.41390069882766    1.52437834026733
H           2.81339791539438   -1.31344436242035    1.49957966627945
H           1.44348012690652   -1.78691736798709    0.55080396822848
