    26
        -50.47126132  Gyration_radius:  2.42922992454 Dipole_moment: 4.304
 S           0.40617036339578    1.77508305303709   -0.57975158249781
O          -0.55868711989573    2.64633927293836    0.07506709074763
O           1.29142811748761    1.14369637133734    0.39324525495240
O          -0.20530078586368    0.81336011870906   -1.46896218672570
O           1.31027765620181    2.71174410130882   -1.47344425485199
H           1.47786797726467    3.44288434466614   -0.88838192143725
O          -0.52601423970237   -2.43613058571854    0.16651855770410
H          -0.52066543795060   -3.39363590365750    0.17258759887345
O          -0.00328432374987   -0.51119319657731    2.04258979063492
H          -0.13058045006357   -1.30244574699831    1.48561066166748
H           0.59576924826779    0.07355617037340    1.53426350496557
O           3.19657926082108   -0.57846429689545   -0.29753366050210
H           3.51873706781472   -0.94346748140439    0.52836047604484
H           2.57726548725811    0.13992160495255   -0.05465787435615
O           1.06480555535326   -1.55527148849982   -1.67598522546728
H           0.11626280372186   -2.15639549442964   -0.55481611656470
H           0.64325548553207   -0.68319978186847   -1.78946982281075
H           1.94785455942702   -1.35965271322502   -1.31006991370340
O          -2.38062384517402   -0.65650387350047   -0.80123241982822
H          -2.40870119674520    0.27946446707508    0.47623715625194
H          -1.72695515048233   -0.13462936420450   -1.30160194677187
H          -1.88258903212783   -1.43909709385997   -0.49841376926847
N          -2.07483457194271    0.89332215647768    1.28386567274681
H          -1.56765438854726    1.71333246117004    0.84992797777269
H          -1.33011784447811    0.32574158211832    1.79578388733408
H          -2.83026517582449    1.19164132668006    1.89026305509074
