    26
        -50.46133302  Gyration_radius:  2.45215474327 Dipole_moment: 4.953
 S           1.74230534251805    0.81305540701937    0.88420496785715
O           1.56531109074934   -0.55669465645016    1.32092991110259
O           1.35620476114285    1.02290934202092   -0.49504679794910
O           1.08057218777611    1.75343079848814    1.78924082753145
O           3.28948148063605    1.12709194178216    0.96990157930707
H           3.50354716406668    0.90107144349141    1.86968154455293
O          -1.72402557602758   -0.52577850192767   -1.68616203448000
H          -2.30106416536674   -1.24149226165109   -1.95534385933180
O           0.99148106403988   -1.31447645271520   -1.83358716479521
H           1.30983051822694   -0.54340437477841   -1.33230856825042
H           0.13530369157708   -1.03685937819516   -2.18668832095810
O           0.13966445318762   -3.22160860388868   -0.11598277785149
H           0.85360043644393   -3.33078653471429    0.51531976181727
H           0.51346692067282   -2.63793895095736   -0.81545839039860
O          -0.97512689215554   -1.03414774108740    0.86464680685632
H          -1.45877597951839   -0.71544197873815   -0.75690009934544
H          -0.87003368181944   -1.98520793073502    0.63472847593983
H          -0.04339896346512   -0.79784214242194    1.08312585454617
O          -0.93999350181317    2.06928431142397   -1.37492221480852
H          -1.31073422235041    1.27272738160800   -1.78807022366690
H          -1.36182443450249    1.91954019760387    0.10503098750851
H           0.00331255208461    1.85318142230819   -1.22506794500795
N          -1.40946800726752    1.63546581145639    1.14558282762453
H          -0.40656890355013    1.77094608978621    1.50978191116416
H          -1.60094831813796    0.62446650607361    1.19808641355166
H          -2.08211901714035    2.17850887520358    1.67527651748776
