    26
        -50.46133223  Gyration_radius:  2.45635104206 Dipole_moment: 4.852
 S          -0.82496297419526   -1.85622684446600   -0.62985840190632
O          -1.06153744142860   -0.84216594263157   -1.63653805421533
O           0.45944394604185   -1.71651092641066    0.02304681500600
O          -1.92698061072156   -1.92464762145332    0.33051051029758
O          -0.79971421016531   -3.25066432796044   -1.37493628029482
H          -1.64197622329617   -3.27072037611736   -1.81843690999059
O           1.56153144901592    1.62443156217812    0.98800267195597
H           1.88831398905638    2.51273954694998    0.83975705246662
O           0.67473507801916    1.97698535142916   -2.47648154192769
H           1.28289230690598    1.27486898119448   -2.14818724368762
H           0.17404167969789    1.55858807115652   -3.17926060451113
O           2.09807515075626    0.01641590932443   -1.27954928411713
H           2.32600655869063    0.48513730401442   -0.46520195750865
H           1.51277302036299   -0.70490963046631   -0.98920271954741
O           0.92197270805029   -0.61300015438744    2.41268292386216
H           0.90518009797109   -1.20464916830252    1.63247315066735
H           1.41678404903142    0.16818945019822    2.11713086416253
H          -0.55115126233364   -0.15846339047304    2.28263790616507
O          -0.79034446062451    1.42412711038546   -0.34319236512430
H           0.70572460583830    1.55874028219267    0.50580852999224
H          -0.39548772537439    1.94417151118876   -1.07910322296324
H          -0.94712136237661    0.56007104339044   -0.79153492072888
N          -1.53177819963157    0.07905393470035    1.89918954144477
H          -1.44010784724055    0.86284696660728    1.23620197718066
H          -2.20702242661067    0.27508795050644    2.62964860175611
H          -1.80928989545450   -0.77949662274861    1.31439297157589
