    26
        -50.46061526  Gyration_radius:  2.54354104096 Dipole_moment: 5.977
 S           0.36195088741222   -0.26331454539323    0.22388632247234
O           0.80597224893126    0.12229961986742   -1.21116192556066
O           0.95354144764929    0.75093276061256    1.08791801529595
O          -1.11322728103486   -0.14165214927122    0.25184828851586
O           0.78715847538819   -1.60791775128700    0.51679700422034
O          -1.55024463680187   -2.58025494546403   -0.76245408729857
H          -0.95428465591314   -3.09209121672386   -0.20771623701114
H          -1.56841482998058   -1.69423425206561   -0.35791574855974
O           0.56117164942137    2.78302241598047   -0.51325982655667
H           0.71972741873325    2.42652539692429   -1.39213911809792
H           0.90345904682468    2.08966655141529    0.09916526419491
O           2.09720751735407   -3.12646334500279   -1.23168930793456
H           1.66417750119641   -2.64759648634600   -0.49450488716327
H           3.02534580227398   -2.89219297455500   -1.19428243937529
O           0.19138740750324   -1.85031418099899   -2.64263372093463
H           0.54985586255207   -0.65068470838123   -1.84793977879806
H           0.92566580071571   -2.44970867194861   -2.39989315686736
H          -0.58778638899268   -2.19656766050203   -2.14876693963333
O          -1.72059123597171    2.24611702880645    0.48676581475594
H          -1.59083666115921    1.21436400230785    0.33566267842315
H          -1.40529305082387    2.33256006610274    1.53371783189962
H          -0.92885482132312    2.63835541011239   -0.02022117159768
N          -0.69953368798034    2.20811667709328    2.78277709647120
H          -1.18524533435223    1.70824516024934    3.51562101488910
H          -0.30196520021106    3.05541827910949    3.16672300592396
H           0.05965672858726    1.61736953934217    2.42369600832068
