    26
        -50.46400444  Gyration_radius:  2.43650806586 Dipole_moment: 6.308
 S           2.11562135554888   -0.54589928174730   -0.55107681066377
O           1.01192802545810   -1.40182491881945   -0.10949802738649
O           1.68353111162159    0.46642540661763   -1.48546603031815
O           2.89133552745484   -0.02473701378843    0.55103192079329
O           3.07305396266209   -1.53367552138839   -1.35110567897233
H           3.80614719573142   -0.96046842281395   -1.54754475463376
O          -1.24195700660261    2.13479121236181    0.14924958305873
H          -1.37677685782015    3.06356345722934    0.34075143660335
O          -1.26744692194279   -1.40226042807120   -1.43777928717137
H          -1.89148300787184   -0.85910505617777   -0.25583146834544
H          -0.36721370918753   -1.56303464447893   -1.07560806039035
O          -0.09932273200454   -1.14616810899831    2.20483272184421
H           0.39981584105684   -1.26898155912835    1.35005122396420
H           0.14144974208387   -1.89178526363476    2.75594685213843
O          -0.75010965263626    0.97707233121139   -2.38979182461745
H          -1.15892852222967   -0.57939794226241   -1.98825311641540
H          -1.03525192638682    1.55144964981401   -1.66538247187437
H           0.20646764605135    0.84555017355621   -2.22266944881588
O           0.88577744075359    1.39480073318881    1.46683708197874
H           1.70146702775706    1.02116621387049    1.07162437819213
H          -0.36076088029039    1.89912057817992    0.55126901383532
H           0.57079980964399    0.70327461212080    2.06323378353244
N          -2.19978064789828   -0.34336278945138    0.68792306872912
H          -1.54888408959864   -0.68344101392715    1.42301426407188
H          -3.16758235890946   -0.52184858160844    0.92798842063420
H          -2.02189636244465    0.66877616814495    0.53625323022631
