    26
        -50.46983301  Gyration_radius:  2.43247145042 Dipole_moment: 4.330
 S           1.26055571635446    1.33340231728790   -0.93077966719164
O           1.04393062885963    0.20997393654586   -1.80624773844474
O          -0.00849060097123    1.85542542723818   -0.39746550828333
O           2.21737777917120    1.10892703711936    0.13170741288964
O           1.86250611161683    2.49780101146687   -1.82008409669031
H           2.33354849559720    3.01554976736420   -1.17565747910941
O           0.08036028018342   -1.87823157028485    0.92096803801844
H           1.00338981149613   -2.00759504894106    0.61959532511605
O          -2.36703110930909   -0.41004894888676    1.94140483023314
H          -2.05424125354055   -1.31915644266523    1.88071690515952
H          -1.60961404321509    0.09891096212706    2.26993953336980
O           2.52072989433560   -1.54163877346995   -0.16477712353864
H           2.35857447759170   -1.58410310970663   -1.11110821695454
H           2.55156798088024   -0.58650150065462    0.03070541321701
O          -0.91428755784605   -1.58409761835131   -1.54062776280867
H          -0.16872149496248   -1.03661095551253   -1.85723836686848
H          -0.61002334989816   -1.90834995820629   -0.66054856726952
H          -1.83077072048445   -0.45305344047315   -1.09540801828830
O           0.16432301659547    0.69383232913720    1.96203965209161
H           0.10118508836236    1.21632135587754    1.13403688840955
H           0.10200591262090   -1.00416830747107    1.34934749476767
H           1.09029909786587    0.75732342095692    2.21140948010337
N          -2.22616361975237    0.43070494107815   -0.60524874947499
H          -1.42113960512006    1.10846990231624   -0.58788985258596
H          -2.45165957895266    0.16560686120936    0.38668013878653
H          -3.02821136748368    0.82130641490467   -1.08546997465775
