    26
        -50.46983302  Gyration_radius:  2.43235140118 Dipole_moment: 4.334
 S           1.33010729952504    0.74190928749209   -1.38335732424832
O           1.84705405568192   -0.49579366356766   -0.85769545157772
O          -0.07636060856431    0.60722683789259   -1.79714416582562
O           1.51191621717462    1.89597839407770   -0.52895249404585
O           2.13901104845329    1.05031975945682   -2.70976833696538
H           2.05328803715756    1.99535865071713   -2.77880230048814
O          -0.16668817300298   -0.22738349856678    2.07376147991091
H           0.76570097164115    0.04620858574327    2.19787400827899
O          -2.94873947531753   -0.27686629470033    0.87529462854822
H          -2.61918873393507    0.62102572191209    0.71455711345046
H          -2.51507039849389   -0.56445418260936    1.68603271370975
O           2.35642250134289    0.62345009342817    1.67817098907328
H           2.11242946834508    1.22241755212971    0.94794043290574
H           2.78267334082327   -0.11934171922091    1.24198162238121
O           0.42223948201414   -2.30130453392901    0.49687726596959
H           1.11242051945330   -1.82158195049714   -0.00239371343473
H           0.20615385305964   -1.69277396967403    1.24207977429430
H          -0.74999229368594   -2.00253865327723   -0.42709259485235
O          -1.12187596291639    1.72612391720619    0.34802665541520
H          -0.77584823853300    1.38618788673098   -0.50477415204492
H          -0.53968214924937    0.48208284032727    1.52102712847349
H          -0.53830864853428    2.45834517392583    0.56467799187416
N          -1.49314440222763   -1.48896026294555   -1.02850655134164
H          -1.91716595500522   -2.08865098443215   -1.72638873472199
H          -0.97098334962635   -0.69094353841407   -1.47369257578926
H          -2.20636838556521   -1.08604144923191   -0.36973342893097
