    26
        -50.44961620  Gyration_radius:  2.49727984005 Dipole_moment: 2.631
 S           1.75047602632303    1.03183438774974    0.09769046351905
O           2.01168455273190   -0.38939849118805    0.35507176912348
O           1.21409958548895    1.21518029109131   -1.24224135097431
O           0.96918283893851    1.64034883429411    1.13725610751757
O           3.16878041087758    1.73366862974899    0.09634195135642
H           3.58216619227380    1.30868998929884   -0.64716816831181
O          -1.91025676189698   -0.62002705991478    1.39695505514576
H          -2.49242333990623   -0.76022757023367    2.14536434806717
O          -1.23461175115923    2.20279535128054   -1.58761074086181
H          -0.32179307811243    1.85117817510693   -1.50759456298807
H          -1.14358346739550    3.10107379513587   -1.90868862536440
O           0.39926313774006   -3.21734719773633   -0.26329436347579
H          -0.01471350654541   -2.47440075941795   -0.82124338380006
H           1.32308852254443   -3.25347072825016   -0.52076078880154
O           0.38099693022686   -1.66854383498098    1.70939994343658
H           1.09073659947206   -1.04325323462962    1.25756351253763
H          -0.54024577807573   -1.20546350509490    1.62515980963457
H           0.35133423747027   -2.44756396273064    1.00680373168049
O          -1.66710221980260    1.90457011068846    1.06466461656974
H          -1.85289289087540    0.38652253045741    1.27457079549098
H          -0.70854706993615    1.96154257718861    1.24862164074207
H          -1.73191331869429    2.06622952159570    0.10192311780794
N          -0.56087573286918   -1.08362299248129   -1.42352706652887
H          -0.89520954258852   -1.10196158985244   -2.37888902804784
H           0.16463141346031   -0.36941866475695   -1.37131176655291
H          -1.33227198970218   -0.76893461237451   -0.84505701691910
