    26
        -50.46183270  Gyration_radius:  2.40573939082 Dipole_moment: 6.566
 S           0.39429638985053    1.64251331100206   -1.08998366917414
O           1.59286512711277    1.09126335140326   -1.65997093861902
O          -0.74816276165951    0.74958248890407   -1.07933642647143
O           0.61227350353405    2.21652625102403    0.24414656064139
O          -0.02219254451716    2.86205077022968   -2.01897649027788
H           0.80881712929225    3.17062947576848   -2.36772840316517
O          -0.76080710196116   -2.14314423258557    0.99343278816143
H          -0.39693131974146   -2.99134172116026    1.25014430646757
O           2.20513835088070   -1.57670812179318   -1.32156737177281
H           1.33198163634459   -1.87803022716200   -1.64802559347555
H           2.29290246861098   -0.68157786461160   -1.68133189151209
O          -0.44998325662112   -1.85082728297497   -1.82206691208069
H          -0.57801057864499   -0.88859898656213   -1.76450845036996
H          -0.76718218453315   -2.19019358693651   -0.97401896126215
O           1.28884716667136   -0.43076137698626    0.85127811979811
H           1.77934710868509   -0.96043800598152    0.16441965738465
H           1.21888790188471    0.44342837388010    0.44817091809854
H           0.00176081282483   -1.51809069656202    0.94493980133404
O          -2.45491521710921   -0.02006213628007    0.79496431035023
H          -1.49339270361590    0.65707623202596    1.74208060746069
H          -2.03085588765190    0.30723107348645   -0.02759722236177
H          -2.18187336089122   -0.95000861146748    0.85330892738010
N          -0.63422879340992    1.12682202935441    2.22403768625716
H          -0.16192512267080    1.70004364954826    1.44574943242773
H           0.04038336744184    0.40582699963428    2.48185260672946
H          -0.88704013010035    1.70678885480418    3.01658662805576
