    26
        -50.46183238  Gyration_radius:  2.40578022752 Dipole_moment: 6.572
 S          -0.35487539308042   -0.79383315527053   -1.81274535587670
O           0.42232127844879   -1.27816969728547   -0.68833866955076
O          -1.77964479005893   -0.82560237609056   -1.62719693944744
O           0.13190857940269    0.52222483969458   -2.24667839001901
O          -0.03865466864304   -1.78528313439365   -3.01292187261066
H          -0.83043108498017   -1.75392123039616   -3.54151430260748
O           0.50787049584463    0.54581341007248    2.36626712363970
H           0.07116716039239    0.91534995841723    3.13468588232190
O          -2.87596917606148   -0.31460022737275    0.85070725077127
H          -2.86158247815981   -0.58797220839435   -0.07858090290271
H          -2.31616414956592   -0.98016976125075    1.30159420097062
O          -0.80930328592068   -1.87880537029308    1.66274106703239
H          -0.28188573162666   -1.24504306807035    2.16788590348273
H          -0.42426975045713   -1.86182874077809    0.77002969410504
O           2.47038237437162   -0.30362334948960    0.67991292784408
H           2.17856366102447    0.97120105052357   -0.07408857385110
H           2.01154714450027   -0.15425982673507    1.52249228846850
H           1.85435213521441   -0.86723808991487    0.16368415503705
O          -0.90898484294626    1.30406751685876    0.22877773189698
H          -0.77967441000386    0.92863337686239   -0.65099131867493
H          -1.75095483413131    0.87213377855607    0.54055008894262
H          -0.02069144910492    0.83175436768068    1.58305353969388
N           1.73749484873620    1.77739806585019   -0.66310069898276
H           1.15909033454905    1.27912008405862   -1.42116716646750
H           2.42698778134821    2.40178136492869   -1.06701253426394
H           1.06140025089015    2.28087244221390   -0.08804512893148
