    26
        -50.46183263  Gyration_radius:  2.40574669333 Dipole_moment: 6.565
 S          -0.76419660672375   -0.86539443309050   -1.64583693252188
O           0.51603239662806   -1.31775502382020   -2.11671579729534
O          -1.01663442768229   -1.09498990061420   -0.23646560038831
O          -1.03562612845328    0.53473156605276   -1.99651084416728
O          -1.85389051338416   -1.72139168275784   -2.42263920347945
H          -1.42867166553353   -1.92466456279802   -3.25048767443964
O           0.82987242848129    0.67227538942152    2.24000030612185
H           1.65715003606864    0.89473210635275    2.66877400862198
O           0.97213959518442   -2.03412670137783    1.36512117081284
H           0.23150542886118   -1.90306831975501    0.74876615277456
H           0.93132323625045   -1.27353644253280    1.96074906912945
O           2.74218741662371   -1.15333536217233   -0.49669816477368
H           2.30753671492740   -1.62266454202319    0.24530765748378
H           2.22255902759322   -1.41124167557626   -1.27249982491921
O           1.21313999064036    0.97377820590087   -0.38964411491688
H           0.98043977494470    0.78754630847762    1.27116899033876
H           1.95749396125866    0.31265665735290   -0.43179562815183
H           0.59178694663500    0.65027320616688   -1.05362779283301
O          -1.84009778515765    0.44871367594341    1.75272136831001
H          -1.61448866547737    1.57774409739795    0.77598261473571
H          -1.71290227966129   -0.27369072491913    1.10037018211777
H          -1.01770419730274    0.45468563355612    2.26887811502903
N          -1.30851738421160    2.21446045353103   -0.05600849954037
H          -0.33512652246663    2.49146159893101    0.07509396932846
H          -1.91375146486785    3.01705775015306   -0.18988687929539
H          -1.31155932317593    1.56574273219856   -0.91411666808188
