    26
        -50.44929209  Gyration_radius:  2.51699156669 Dipole_moment: 2.089
 S           0.52422856371272    1.74160296183266    1.48223662481969
O          -0.76615118477652    2.39541919978833    1.47305132555080
O           0.59827386542751    0.60936996857609    2.38201650947438
O           0.98652235053176    1.39505966685108    0.14077661346142
O           1.57488490163014    2.80912267221406    2.01021319576578
H           1.24109699154097    3.00562986458281    2.87926928189680
O           0.37401108908275   -2.51262701016868    0.19863268065155
H           0.71406122849657   -3.19951135088689    0.77428641823516
O          -2.26364359170632    0.86416870686295    0.00279079405637
H          -3.15735375555142    1.19530326781444    0.11129292493256
H          -1.68423976590069    1.50024860289941    0.49096349877122
O           1.43295437937985    0.02021254078119   -2.65530576307516
H           1.39976127278833    0.95923992541577   -2.45003743329912
H           0.48001652573403   -0.31051633227563   -2.54995452176518
O           2.11347182678341   -0.73665428329729   -0.37627795070773
H           1.96871716126365   -0.53596291078138   -1.40464864708419
H           1.70843140615380    0.15456589891260    0.00431277997248
H           1.44423703522163   -1.48186068033819   -0.13674301762674
O          -1.24057109174304   -1.10160165076400    1.60632791948687
H          -0.59065501231190   -0.50968723164856    2.04555332047353
H          -1.75639736275286   -0.51346835429294    1.02554401875069
H          -0.30093975489605   -1.99947337561430    0.75270581570214
N          -0.96529250164957   -0.84577957665141   -2.06115840194989
H          -1.37375899411765   -0.16249599140382   -1.42727862156617
H          -0.81761143739473   -1.69862266982368   -1.53323824645607
H          -1.64405413493687   -1.04168186858366   -2.78533111845955
