    26
        -50.44929205  Gyration_radius:  2.51716746482 Dipole_moment: 2.087
 S           1.95537719759103    1.20240296406987   -0.48697639872753
O           1.46122794488917    2.51838711243972   -0.14541142764386
O           2.40557853683716    0.43380974990708    0.65475503214231
O           1.01388710465575    0.44596317227871   -1.30848878945430
O           3.22419615582003    1.41703563936229   -1.41771568638691
H           3.80791560086726    1.90961980648120   -0.85033371093905
O          -0.34428836145142   -2.10704592170961    1.39091440449266
H           0.10688526726737   -2.75665567144032    1.93248928759440
O          -0.93091870278159    2.09774308365625    0.77641650799747
H          -1.21503399564249    2.93440082703801    1.14984510767273
H          -0.05840152180830    2.28143013149340    0.34794614187049
O          -1.39923024850309   -1.29742354234045   -2.33905550410106
H          -1.89959244315286   -0.92282489659420   -1.54034725698677
H          -0.99063565826321   -0.53647535821761   -2.76213513231996
O           0.34804706736882    0.19956990871841    2.27414297898299
H          -0.22512420790032    0.88621299281478    1.88778078098738
H          -0.10414508542078   -1.20595235485465    1.78604717906457
H           1.20515460180212    0.29739843917334    1.80355326990181
O           0.58695543507730   -1.96048736717239   -0.98026600611064
H          -0.26377964394294   -1.87096599751326   -1.60216291402245
H           0.93224246056473   -0.97177197285209   -1.06176740505437
H           0.22642545550529   -2.06083362151761   -0.02088445243409
N          -2.40198726088205   -0.33076496698668   -0.12221349962222
H          -2.13616855440148   -0.99018925305815    0.60050936998385
H          -3.39385164831642   -0.15308562380382   -0.03179232506202
H          -1.91073547578543    0.54050271062712    0.06515043817012
