    26
        -50.46117192  Gyration_radius:  2.41701164657 Dipole_moment: 3.332
 S          -0.95012816483077   -0.37837259312665    0.11569554770983
O          -0.65640138296571    0.91961929376897   -0.52667382566381
O          -0.80993623683134   -1.45547684624550   -0.84525095345124
O          -0.10265753838968   -0.56039932697483    1.28530201394161
O          -2.41189129781343   -0.30189296981919    0.61269943775343
H          -2.91956395553800   -0.25203129191817   -0.25422248353157
O           1.83167571166267    0.89834090241936   -0.94018971929250
H           0.81576589824890    1.02230690176800   -0.93053977855146
O           2.10125702145896   -2.11808593998899    1.34712038549462
H           2.69124092609081   -1.56385216554172    1.86374218456248
H           1.20731061680279   -1.74644398129968    1.46334163926092
O          -0.25294993173553    2.69902303815177    1.45563504299419
H          -0.93539454606787    2.55433973201744    2.11263376265809
H          -0.49804658473855    2.14976351912108    0.68595081687320
O           1.92534704289631    1.11731108830625    1.56864625606264
H           2.06596873272565    1.04240808015408    0.06848498176549
H           1.43739816340827    1.95264960033546    1.69942999183964
H           1.21528391197599    0.44140432531192    1.64628500360005
O           1.79432439130369   -1.56291437012852   -1.23059525900952
H           1.93631864012701   -0.16923041473081   -1.13842185034693
H           2.08441752286746   -1.93060995619952   -0.36247105792630
H           0.81423089160321   -1.67188070367776   -1.22655099233008
N          -3.15358155215095   -0.24904881125911   -1.86196019267953
H          -3.95932736754901   -0.60727252449278   -2.35829784855841
H          -2.36796508721340   -0.87977810293375   -1.99760756433625
H          -2.90269583537932    0.65012348713066   -2.25218552895074
