    26
        -50.44929211  Gyration_radius:  2.5170039447 Dipole_moment: 2.089
 S           2.08528789901986   -1.06962105323948    0.11207444182667
O           2.86317968035013    0.07241566239093    0.54018139082436
O           1.39414277983733   -1.74275481852009    1.19200347200462
O           1.18159965062783   -0.75082243345034   -0.99021365816966
O           3.10998281946135   -2.12052022649478   -0.49436801592302
H           3.67465994859404   -2.30160336596063    0.24969865354155
O          -2.26282480757515   -0.67917536683211    0.95424560366886
H          -2.71298533270857   -1.34881777793475    1.47173096449911
O           1.11468457480159    1.96368051496871    0.87866544256665
H           1.58742027645244    2.67898256714047    1.30882364107768
H           1.79952224176314    1.28078648635652    0.67061575665343
O          -1.22167686577929    0.27522925155914   -2.74537603364975
H          -1.34378730492934    0.97279941349917   -2.01937499830962
H          -0.28272124597896    0.28700666630707   -2.95325307929322
O          -0.19829240570436    0.03078079111238    2.30075532130273
H           0.18553281679140    0.83850914252248    1.91406367680080
H          -1.48293613515670   -0.37144492560690    1.52255663614635
H           0.41712032658944   -0.68816846171400    2.03607980178142
O          -1.12205277759534   -1.62057347478173   -1.12488582759918
H          -1.61004469259997   -1.27480336520425   -0.28650503773937
H          -1.31858683776357   -0.91422935229390   -1.88724841402342
H          -0.10454163841714   -1.40213042434374   -0.98281708548920
N          -1.43157333810737    1.84617108211673   -0.66145002086079
H          -2.02345865855111    1.34496271252341   -0.00853710452711
H          -1.79339581350067    2.78671583880097   -0.75066582862600
H          -0.50425515990706    1.90662493707656   -0.24679966848289
