    26
        -50.44930410  Gyration_radius:  2.55022979909 Dipole_moment: 3.574
 S          -0.88393534185537   -0.61500005913927    1.28981462380324
O           0.10123181187087    0.29176772006972    1.84234713407882
O          -1.61437953757992   -0.00448952252633    0.17702582040507
O          -0.28289147699007   -1.88975806524573    0.87237433176475
O          -1.91952478219070   -0.97433042343137    2.38863312182702
H          -2.25757831332348   -0.07487186007683    2.64283724659039
O           2.78501463932806   -1.43478350011233   -0.97428292866327
H           3.19131747033595   -2.00274337978409   -0.31673448484620
O          -0.78417395528373   -0.07056393004190   -2.20606084166157
H          -1.12686594855505    0.01596892081574   -1.25571055085711
H          -1.56672124684841   -0.09911252268503   -2.75954580546993
O           1.08800605665365    1.96608879649413   -1.94852094315800
H           0.37483340322218    1.32505268504186   -2.10336653492259
H           1.72584245625840    1.84775960628328   -2.65481557998985
O           0.45224078266009   -2.20695666720555   -1.44469301829734
H           0.07907317434059   -2.15229140774131   -0.42824115674502
H           0.00040314700239   -1.43066929227605   -1.90057981411281
H           1.46710072327329   -1.93573779341441   -1.32251761651346
O           2.17330386343094    0.73084479026528    0.24335629559693
H           2.59848495010568   -0.55662802135114   -0.49784298934071
H           1.80303246049214    1.34333772281104   -0.41951455413418
H           1.46309934242794    0.58355320649979    0.90389248350257
N          -2.30035318103219    1.59949441958557    2.56170287400302
H          -2.66077075674277    1.77600297261737    1.63215342367167
H          -1.28676020542992    1.63375499806948    2.49740303926539
H          -2.61902955518773    2.33431059631589    3.18088638419830
