    26
        -50.44930445  Gyration_radius:  2.5497041753 Dipole_moment: 3.578
 S          -1.64404078408710   -0.34882650786139    0.05785806792556
O          -1.04186541899676   -0.05693731157441   -1.24475490664626
O          -0.95493104937698   -1.42847321814655    0.73415008011020
O          -1.70072554866201    0.86689421430755    0.88186523506836
O          -3.11947743650467   -0.76194448609485   -0.19026027198322
H          -3.00477916846297   -1.59565683956659   -0.71887118387946
O           1.46957411764175    1.61926221307247    2.44392978374590
H           0.99424212363199    1.60373878618364    3.27685043346822
O           2.87671808753305   -0.24572162567574   -0.70340639213717
H           2.23112848334059    0.36452811296212   -1.09616383126528
H           3.62631437165745    0.28397677285755   -0.42555858293820
O           0.90307896568351    1.52706389859657   -1.52969523028817
H           0.78667543854903    1.93965196376485   -2.38744949664241
H           0.15188229652410    0.85082874908007   -1.44965253764064
O           0.02299934305747    2.59501947881175    0.65131749304150
H           0.45451265666964    2.32447090046620   -0.21773261437747
H          -0.80560226209252    1.90248936805274    0.74543990834848
H           0.67047787726109    2.27252431853770    1.42314390457401
O           1.47536436819429   -0.79088513935501    1.58676482225608
H           1.51790878682157    0.65055313434110    2.13929696861702
H           0.57278135249468   -1.08559317547320    1.33959391372942
H           1.99894692313755   -0.80496140957271    0.76370282519308
N          -2.10161016102126   -2.80198489151152   -1.45534840042840
H          -2.28760113569309   -3.74832323356591   -1.76323846742955
H          -1.46512578157396   -2.82785039117641   -0.66363402501222
H          -1.62684643566399   -2.30384370142008   -2.19814746514073
