    26
        -50.45064781  Gyration_radius:  2.41920861417 Dipole_moment: 1.256
 S          -0.33420347660608    2.01729950827635    0.02608098600883
O           0.44707874506308    2.80946720357235    0.94953647570071
O           0.44529607938503    1.46700175196315   -1.07063924654226
O          -1.14599336555504    0.99346635945246    0.66271482257780
O          -1.38075919158766    3.02458016267806   -0.62756924872211
H          -0.89398585479937    3.84254808057777   -0.62644886213177
O           1.23701690327702   -2.24597363076356   -0.09384457842084
H           1.81958260609890   -2.85726145331354    0.35975264889536
O           1.30524613610417    0.63728433299479    2.11484112752838
H           1.33620431213324    0.75223306293571    3.06605969221435
H           1.00680458219111    1.49632858913102    1.74397195955424
O          -2.59531397680792   -1.30441150104767   -0.26113517256323
H          -1.97643936108147   -1.20915049126580   -1.06708015120676
H          -2.82363273723563   -0.39647358800840   -0.02924760994383
O           2.49201428069738   -0.00638522857825   -0.23484925028632
H           2.40507161940799    0.22999883467190    0.70259206440760
H           1.77085224472303   -1.39702257318389   -0.22705066571123
H           1.85328337629540    0.58558902868213   -0.68407503550226
O          -0.70307632625004   -1.40331629651934    1.32908884276589
H          -0.64423708493115   -0.39285028463695    1.28235692221959
H          -1.57892621978622   -1.52835303584056    0.70598803898235
H           0.09033703863294   -1.76884790271896    0.78264922640227
N          -0.76218811334212   -0.90524986826255   -2.05981159421965
H          -0.03108002395962   -1.59648324036992   -1.93554920665825
H          -0.37839084203631   -0.00560392915261   -1.75883058513442
H          -0.96056133010984   -0.83841391125350   -3.04950159021183
