    26
        -50.45558066  Gyration_radius:  2.44465769135 Dipole_moment: 2.108
 S           0.07788348083235   -1.06960485673906    0.91031465051744
O          -0.43256074214902   -0.54133275068187   -0.36719765987455
O           1.33372202371388   -0.45379605489094    1.27540819738269
O          -0.95629068799000   -0.91683167568841    1.93465176028063
O           0.29369268145368   -2.58729910511957    0.70513363447079
H           1.10059267938896   -2.59294842661077    0.09298011168284
O          -0.84753309379920    2.83403481626681    0.73311749654914
H          -0.62029236912118    3.44801844759755    1.43401506171439
O          -2.99154054702011   -0.24011346202887   -0.66887646723819
H          -2.01286697815341   -0.39905692467114   -0.69997501721167
H          -3.39645212484046   -1.09319754668741   -0.50002880713125
O           1.20104347870861    0.28660718161141   -2.24918804830833
H           0.66335107540978    0.61961130830045   -2.96951806066399
H           0.57017054148641   -0.05993612319024   -1.57799956424796
O          -2.42894991252846    1.01208333657657    1.47419327086642
H          -1.80219499889712    0.20664279176891    1.77871478516242
H          -1.79174390520407    1.78407390548060    1.17724110524760
H          -2.83455188105677    0.63869152346927    0.61252327589345
O           1.45223263895881    1.87587651597542    0.04514496349859
H           0.02842964621912    2.46318892053326    0.40244012456438
H           1.50036138040699    1.06463067049901    0.59469067151521
H           1.51552019748958    1.55029019125716   -0.86722285755629
N           2.38614905483831   -2.10848361338451   -0.73730700386479
H           3.17886300213305   -2.70620501379085   -0.93359881663951
H           2.64846580339467   -1.43397717087998   -0.02443806989961
H           2.16449954634607   -1.58096687496666   -1.57521875670171
