    26
        -50.47000412  Gyration_radius:  2.46323521122 Dipole_moment: 2.764
 S          -2.14987486521376   -0.42465580525835    0.32547778264999
O          -2.72657727063565    0.89320411362833    0.43373501645658
O          -1.69981480372271   -0.78227497607786   -0.99756092085274
O          -1.09539592791579   -0.67581392670978    1.32084881408233
O          -3.31793605516240   -1.43222515501864    0.72535227816737
H          -4.08394721858899   -0.88316770342471    0.59680866410977
O           1.43048584699972    1.04294304146879   -1.80126836323543
H           1.68642132578628    1.68556454229229   -2.46394337920471
O           0.38002845698250    1.37250293777576    2.04841254548628
H          -0.21210571083734    0.61104621480475    1.83754383985377
H           0.10402142229290    1.69895071332303    2.90559530029185
O           2.52901214421788    0.36258804149688    0.62790301404966
H           1.93582535800918    0.84812784650036    1.22505349462708
H           2.32643147107768    0.69290534680514   -0.26701531485280
O           0.53768569929576   -1.52170420399968   -2.19780632175228
H          -0.39604391296328   -1.33335652029829   -1.97435491615778
H           0.94208197537934   -0.63922460785129   -2.28289499114130
H           0.92274200932894   -1.85579814420255   -0.72362422199045
O          -0.53914369026159    2.12237611859684   -0.45136969795162
H          -1.41795809653207    1.72626524503472   -0.30439492043763
H          -0.14380195171158    2.16781887132389    0.43302242099557
H           0.61688896933809    1.41226550324325   -1.36471535164436
N           1.07140161075540   -1.82098457676166    0.33946802415101
H           1.34824131581153   -2.71754401195094    0.72114853697078
H           0.16306385155944   -1.48849240620785    0.75791112989949
H           1.78826805634537   -1.06131650835067    0.53066753725663
