    26
        -50.45538146  Gyration_radius:  2.56577667819 Dipole_moment: 4.108
 S          -0.60609378192296   -0.47570750360491    0.71640414112946
O          -0.92920246971740   -0.28335996726526    2.21424374295479
O          -0.22960914485671   -1.84588778245159    0.46871010266234
O          -1.78975350591815   -0.04475073047725   -0.02355677318752
O           0.51653769168366    0.44491493724268    0.40910541254606
O           0.13727851735662    0.56906063033216   -3.35108187384204
H          -0.49494388981630    0.80376861483580   -4.03344646685876
H          -0.20402135721624   -0.27079813682112   -2.93532210561655
O          -2.23907513463179    2.38616317012017   -0.78407971352753
H          -2.49762038535537    2.90690657519146   -0.02148452476942
H          -2.22368945931187    1.44071083385604   -0.48186250312312
O          -0.96624442998435   -1.44905350676277   -2.11257336226985
H          -1.54869943618187   -0.96372997617552   -1.50105166205248
H          -0.43874410084666   -1.98752900405036   -1.50735625829145
O           0.65989507192345   -2.11000187382720    2.99184317410630
H           0.45107175238325   -2.51350091348564    2.13562950063795
H           1.51198627125207   -1.63060696909219    2.84101201930190
H          -0.35619195156500   -0.96839640425646    2.68984790340744
O           0.22587670146704    2.13075778548012   -1.35522694537648
H           0.24871762992058    1.55657291652953   -2.21582027373155
H          -0.75272722028202    2.38720286073054   -1.19893303973832
H           0.41587624543934    1.42110769878652   -0.56545084463054
N           2.65683357753921   -0.56184127703060    2.06941004208255
H           3.07201453201408    0.18560475837761    2.61120068825529
H           1.98918757338607   -0.14188729387787    1.42325266440427
H           3.39134069323934   -0.98571942231026    1.51658694548679
