    26
        -50.46154483  Gyration_radius:  2.43327879029 Dipole_moment: 1.382
 S           1.08482081790600    1.14036758717720    1.45085896565009
O           1.44865799376193   -0.09618758518876    2.11013541654674
O           1.86084184561645    1.35603877728711    0.23237712462241
O          -0.33996322308224    1.26763039721993    1.20570608720530
O           1.46139727809122    2.30968827692049    2.44389780888065
H           2.31442615021734    2.05054652825660    2.77701293990200
O           0.37346214154855   -1.59446282633741   -1.20183069459971
H           1.28360790611874   -1.70868054937906   -0.83824553659575
O          -1.67756959363294    1.64019435900800   -1.08042038690415
H          -1.37882966827939    1.72430151331920   -0.15522101313925
H          -2.22710059767738    0.80367713839241   -1.10761293868938
O           2.66794567385695   -1.34794536676117    0.10250845323623
H           3.11642672044142   -0.59551376619258   -0.29261010673752
H           2.28093380954222   -0.99805514566803    0.93045180324342
O           0.53180020671577    0.82629226450681   -1.85534465174610
H          -0.44528953215815    1.24118928335531   -1.63448779539449
H           1.12351249185793    1.13317735393542   -1.08291835860283
H           0.43881075269965   -0.21204316143556   -1.70026781762320
O          -0.90803109970980   -1.30486913498037    1.14923338421856
H          -0.29694084718160   -1.67048860518833    1.79545741908255
H          -0.80362122864825   -0.33465436735518    1.24397315684896
H          -0.20350670362844   -1.59006012039253   -0.40618272598729
N          -2.85072517408275   -0.75079432654262   -1.05456930855906
H          -2.47889747366765   -1.33669210668073   -1.79219896255462
H          -3.85926697614211   -0.82936006917725   -1.06841215917006
H          -2.51690169048551   -1.12329634812444   -0.17129009315595
