    26
        -50.45234213  Gyration_radius:  2.54427360732 Dipole_moment: 2.494
 S          -0.83275393371752    0.80331511898626   -1.11043717245999
O          -1.77778274493142    0.20476974379899   -0.18005931081379
O           0.10026722363551    1.68998131192791   -0.37727810271922
O          -0.10851359389747   -0.18207093467442   -1.88462160035857
O          -1.60995257816223    1.70529323654097   -2.10261437924949
H          -2.08004486264487    2.32850952844296   -1.48610411871874
O           0.94700131792949   -0.63890655544145    2.51459646133495
H           0.41976878127849   -0.12839137456093    3.13065077075606
O           2.93262635218445   -1.47976103238478   -0.45386817578354
H           3.23194117694212   -2.02554739380837    0.27685903080663
H           2.13503562987685   -1.92250819267942   -0.82479590394183
O           0.63675886107184   -2.55905576433850   -1.28111642342958
H           0.56650227028254   -3.10769583606641   -2.06395367499821
H           0.30087812966482   -1.66085469980678   -1.55076957808542
O           2.07098886447741    0.67463261099003    0.65321722468061
H           1.22375977740272    1.14766830546074    0.13504017739699
H           1.65653229622665    0.20340854262534    1.46894894737934
H           2.44785400670954   -0.08185757496086    0.08758007853625
O          -0.76224151073658   -1.90342687598857    1.04757217655445
H          -0.33155694071702   -2.37543139460141    0.32051164103347
H           0.29404827013737   -1.20137107618489    1.99532998940401
H          -1.24883045255241   -1.16219746166756    0.62218831232634
N          -2.55029270045737    2.91894105905876    0.00200580331953
H          -3.35893406041505    3.43359927502439    0.32636500232186
H          -1.71402345229996    3.35036484999591    0.37457660226101
H          -2.58903612729013    1.96859258431204    0.36017623244378
