    26
        -50.46154478  Gyration_radius:  2.43326057947 Dipole_moment: 1.390
 S           1.67089935243696   -0.01943281051178   -1.33768034584747
O           0.74463308319517   -0.05484116235838   -2.44992317339534
O           1.75596853629457    1.31169340194799   -0.74259374084128
O           1.41043724961366   -1.03613287589527   -0.33529009467457
O           3.09872738443334   -0.34678638990374   -1.92867463089012
H           3.12467749055049    0.15689903758297   -2.73578345344229
O          -1.70983362075860    1.07600786386933    0.20740740204096
H          -1.52444367118357    1.60629061210099   -0.60376172430963
O           0.90896133593370   -0.80153826573096    2.28204115548952
H          -0.01138429805222   -1.19334727575545    2.32610019918859
H           1.27899049908796   -1.10414172636471    1.43133774984192
O          -0.64480652000922    2.16262506301094   -1.96335465926871
H           0.07163027482175    2.72293279906690   -1.65324834324532
H          -0.20271226174822    1.34952316551163   -2.28125255854769
O           0.45315433984823    1.47780244834217    1.42077026035253
H          -0.51052070882221    1.35827866665042    1.01093446901567
H           0.67727011892798    0.53870673304436    1.91392908862890
H           1.06254662514399    1.49226442901639    0.60256859529288
O          -1.15935008702395   -1.34906773493561   -0.82640585173098
H          -1.21030950160801   -1.21484387387347   -1.77726571379333
H          -0.19719299654591   -1.36299804814807   -0.63845186116651
H          -1.64422153469607    0.14339392783979   -0.09575131357686
N          -1.60687036610847   -1.65948081786873    2.11309320295965
H          -1.91314286803391   -2.46436897775972    2.64402762483111
H          -1.66993760898379   -1.88914816434818    1.12635506307623
H          -2.25317024680886   -0.90029002449460    2.29087263400728
