    26
        -50.45591213  Gyration_radius:  2.49172487632 Dipole_moment: 3.164
 S          -0.49843208460118   -1.11603125048440    0.09937717984860
O           0.34760260242855   -2.28245240270832    0.14082188387086
O           0.04438786845020   -0.04742652216048    0.96988636318107
O          -0.73572186933221   -0.59094019598815   -1.23805377821086
O          -1.90119569362862   -1.46908096213345    0.66803918915597
H          -1.68934010091966   -1.91382192493988    1.53931926865117
O           1.30334109497897    2.85002102237783   -1.06220367694538
H           1.20002781809649    3.47404243967479   -1.78194627951683
O          -2.31979195566900    1.44943620954073   -1.39538563464796
H          -1.86759019647357    0.56842812652151   -1.38079868644934
H          -2.29055724673131    1.75066231041277   -2.30573570535655
O           2.61467638813296   -0.84360041732592    0.00050698623484
H           2.33816454554340   -0.24444383664085    0.70017687863253
H           1.93770011866653   -1.54404549370726   -0.00318572507398
O           1.58339388021939    0.50282605811712   -2.08462843182021
H           0.72296324420283    0.06389684348356   -1.95420688161110
H           1.49191221357149    1.95186582631490   -1.48331361148621
H           2.18915484031141    0.01953342908227   -1.48395628576766
O          -0.66766100523754    2.23483351464883    0.39268598877554
H          -1.41144865509677    2.05560609066039   -0.27839667227017
H          -0.36918018159762    1.24560055527798    0.72075534516892
H           0.14777669523718    2.57349014180864   -0.15257249481106
N          -0.75977521253190   -2.57924706973920    2.72555030067347
H          -0.04956405026594   -2.80989093090236    2.03529694618410
H          -0.98680161482809   -3.41054693080089    3.25578794712476
H          -0.37404145290893   -1.88871462058331    3.35617957652191
