    26
        -50.46272432  Gyration_radius:  2.48125683209 Dipole_moment: 6.115
 S          -0.15780267964736   -2.21293364417901    0.74003332407299
O          -1.25895436303228   -1.34985346227345    0.26941691189296
O           0.43568932110147   -2.98742514498347   -0.31953678972434
O           0.75982100777986   -1.45110981991921    1.55077042830897
O          -0.85568656723511   -3.27576004122640    1.70187133422760
H          -0.88110207033002   -4.04005899094415    1.13568620992395
O           1.79100277594661    1.41174145834254   -0.63083298550241
H           2.60513099999290    1.69266338565075   -1.05079211755971
O          -1.30435932018081   -0.19336075912171   -2.19081585018955
H          -1.27483321210903    0.72919820556319   -1.90504339659425
H          -1.45312340683825   -0.71811064108119   -1.38472686863258
O          -0.67505170006572    2.37054029078543   -1.04383569697793
H          -0.65856112602023    3.18763794356485   -1.54297230038417
H           0.26088383258199    2.07820687507992   -0.93851476364971
O           1.27092227590900    1.07480160138521    2.03819367506984
H           1.65439470305199    1.29965469083773    1.17106306156979
H          -0.23016086896918    1.13115864676306    1.71383271479513
H           1.27689593172499    0.09474576807294    2.05155385998983
O           1.26693757089169   -0.86793296081840   -1.69916195655074
H           1.62337122808279    0.47853548840498   -0.97573135886452
H           1.11899462950386   -1.69205614273961   -1.19838869320420
H           0.40588523448879   -0.68504830356593   -2.12965173752251
N          -1.21718662603819    1.02941017616657    1.28419575959776
H          -1.27702595170511    1.66528128201292    0.47521013233236
H          -1.95066577350801    1.20986851817030    1.95968648517770
H          -1.27541585537645    0.02020558005009    0.91849061839798
