    26
        -50.45632274  Gyration_radius:  2.51324125558 Dipole_moment: 2.106
 S           0.38269651149389    1.27387098765576    1.81851186814201
O           1.76047140034167    1.19230666815819    2.23693385405800
O           0.21260140023993    2.09501677806629    0.62272122706251
O          -0.28080111206232   -0.01108057553556    1.66927432530616
O          -0.39496293709699    2.01606006630862    2.98330446647412
H           0.23996223833059    2.67410935985330    3.24400866426941
O           0.28085743270872    0.10923032398993   -2.35305486365132
H           1.02397389056358    0.69256469825477   -2.52099596394204
O           3.21011766212553    0.23975199002231    0.24781291459183
H           2.71636210884079    0.68569790740585    0.97201221930396
H           4.02750669192408   -0.06931545201808    0.64265680433961
O          -2.48511524398585   -0.38752278854238    0.26692508332816
H          -2.23748040291400   -1.20441094620915   -0.26090881850570
H          -1.80773231540177   -0.32302667582869    0.97490745826337
O          -1.49474211865286    1.43210221418708   -1.07275923147005
H          -0.84256682803728    1.81020057892952   -0.36315393110111
H          -0.87102048093114    0.92481852233141   -1.70375086248973
H          -2.05076398070261    0.65352958604297   -0.52074199297342
O           1.06058966441414   -1.26697935044050   -0.26044147749126
H           0.56010828355082   -0.90905449598475    0.50016160517183
H           0.57232737228099   -0.48371879870171   -1.60548362807970
H           1.95579762000894   -0.88187061171219   -0.15957595358457
N          -1.53550416767221   -2.39010561479669   -1.19704567636219
H          -1.91070316987092   -3.32562558852187   -1.11217329335734
H          -0.57412326442763   -2.40337190595148   -0.87030290100158
H          -1.51785626506749   -2.14317687695635   -2.17884188629776
