    26
        -50.46400310  Gyration_radius:  2.43616894391 Dipole_moment: 6.320
 S          -1.66283058839492    0.21853504880215    1.50332571306402
O          -1.35668554900605    1.02943370179686    0.32232719680390
O          -2.53507260821112   -0.89440501975279    1.20524267766009
O          -0.47395862592705   -0.15579594104179    2.23199428168641
O          -2.49176604684933    1.20103007466035    2.44134382097070
H          -2.77006693339270    0.60716922275482    3.13010766577645
O           1.83731520387973   -1.62916464999123   -0.30533908838483
H           2.25948732952795   -2.48895053716841   -0.30880940690696
O           1.02262995329135    2.14239761963284    0.07234853572261
H           1.23357869834232    1.30081820055170   -1.07996191460388
H           0.08486893227771    1.91328295374425    0.26052869522649
O          -1.37930568984180    0.05844220119470   -2.06768060651838
H          -2.13368252868435    0.40635579419817   -2.54466348213742
H          -1.45260182719744    0.42247140060641   -1.14192029238321
O           2.06147126195987    0.37055045888665    1.68986547721628
H           2.21924067574975   -0.37768973064406    1.09723348550458
H           1.53378388279482    1.64263849969505    0.76584203910767
H           1.17695653278543    0.18651514662414    2.06940002251441
O          -0.73752293265314   -2.05583822637092   -0.31193202937388
H           0.86446710285428   -1.80449417772783   -0.17684643365193
H          -1.36950057005834   -1.75090176232436    0.37242951197078
H          -1.04751967981957   -1.63930329135442   -1.12660035557393
N           1.28816792994497    0.51304565094285   -1.87272453882162
H           1.65051882142310   -0.34197420214324   -1.40704410245874
H           1.87095305749682    0.78999695757182   -2.65361466370255
H           0.30707419770907    0.33583460685738   -2.16485220870752
