    26
        -50.45388637  Gyration_radius:  2.45347752634 Dipole_moment: 6.307
 S          -0.94856810199207    0.49262525199243   -0.15031955104515
O           0.34725337105376    0.13510533932481   -0.78773334515694
O          -2.00777307100126   -0.31632085342187   -0.73511873276398
O          -0.84553591504895    0.35700173321399    1.28105879833048
O          -1.19655025698866    1.98363915262504   -0.48000049760230
H          -1.30291976929699    1.98228281849703   -1.47481710975906
O           1.00871237645319   -1.11781341077130    2.76368102280567
H           0.05671924674083   -0.98897875024902    2.86325403109517
O          -1.44865148907025   -2.68269500576958    0.20281894872655
H          -1.77060684099129   -3.31698453438018   -0.44078556519742
H          -1.77298244682151   -1.79446483343999   -0.09416874656556
O           2.53453163811472    1.52920196923043   -0.15799113021203
H           1.72004516536643    1.10179471913094   -0.49029547300124
H           3.26390304016317    0.96266951134289   -0.41517341271527
O           0.99400460301648   -1.94940203451578    0.42929691142536
H           0.82591349238261   -1.07947224314348   -0.11619225108069
H           1.07802921733330   -1.61898528488750    1.48134769324527
H           0.09246513904069   -2.41208743248685    0.37623987657204
O           1.43619700768686    1.39147818787538    2.33184473789733
H           0.51930355486774    1.36339098995795    2.00960978178439
H           1.35748939462759   -0.17446936027853    2.70124445208375
H           1.97788258452220    1.58818192281480    1.54473464587458
N          -1.45544157495086    1.32924974470494   -2.98031252140059
H          -0.55176569472652    1.08806830669163   -3.36510579951246
H          -2.05287700527472    1.65492232892341   -3.72883087900370
H          -1.85877768528060    0.49206177704160   -2.56828587484238
