    26
        -50.45606779  Gyration_radius:  2.57887065213 Dipole_moment: 2.234
 S          -0.70285049455784    0.24608665955236    0.51899773956266
O          -0.63577305789174   -0.31909085092838   -0.92518998307612
O          -1.56955156801287    1.39232337202010    0.52935316533011
O          -1.29951813371492   -0.87825844964443    1.30695145955529
O           0.64980142135941    0.52225913432868    0.95477331888381
O          -2.68875521568844    2.48322409724970   -1.63033700672461
H          -3.54285407093443    2.07729267372208   -1.78439978094060
H          -2.38577379178268    2.16335704878069   -0.75633575409702
O           0.76451993552654    2.85856797719045   -0.31440554434305
H           0.00350222144982    3.30698510137882    0.06424804553664
H           0.88125287419222    2.05196626615526    0.22267770073908
O           0.59492874013141   -2.73168827201538   -1.17337244833599
H           0.06826331945763   -3.27073265007798   -1.76634455632029
H           0.21831396552052   -1.83364101562693   -1.20577946871182
O          -0.28342739879796    1.63284941901992   -2.40759172634993
H           0.25774444247408    2.19637707699291   -1.80095726568633
H          -0.46448862445412    0.48443733389609   -1.61202855994394
H          -1.18029174922309    2.03383194511352   -2.38741138098181
O           0.26438126906630   -2.75322096570316    1.46562623524204
H          -0.59366640840136   -1.76450225427161    1.41629128240959
H           0.45311347209131   -2.92984314150874    0.51452049619443
H           1.10598848217243   -2.32365788654722    1.83411321818142
N           2.35784485036047   -1.37453473798616    2.20796755101449
H           1.93246965013091   -0.53200063872972    1.82063589529252
H           3.23208497790675   -1.53455577701656    1.72433965976547
H           2.56274090162069   -1.20383148534345    3.18365771781502
