    26
        -50.45388633  Gyration_radius:  2.4537369912 Dipole_moment: 6.308
 S           0.87906192351067    0.49099093410023    0.38752305018038
O           2.15042611149455    0.08967542919659   -0.19655588230010
O          -0.15871706704901    0.52459585296128   -0.67799382910942
O           0.44718830359189   -0.36184677051315    1.46640158188493
O           0.99293815359185    1.93645590544221    0.92710548516506
H           1.33993659426412    2.44692494944913    0.13958817997334
O          -1.49353705624204   -2.37326270518857    1.43028334545434
H          -0.62231899418413   -2.32317898056639    1.84417915462207
O          -2.60390616576561    1.41456746787380   -0.08295367721617
H          -1.68202994443575    1.21220155745373   -0.33932913931136
H          -3.16287128421701    1.06861572029108   -0.78081632859626
O           1.70886018491478   -2.41649261425555   -0.75857348658515
H           1.97092896441275   -1.50517801739088   -0.47011069134044
H           2.26246999433787   -2.63100472339115   -1.51209135602466
O          -2.14282192916893    0.00354441602193    2.20220820063361
H          -1.94265868579603   -1.52966742465160    1.74944387190087
H          -1.18008130953273    0.13749043940494    2.18187111641648
H          -2.49626386552182    0.58240570956051    1.50112583697603
O          -0.79142226768843   -1.88298920418926   -0.89532770264241
H          -1.17592028046898   -2.14110258339095    0.10866024059110
H          -0.61585660962164   -0.85786216091903   -0.86402001208752
H           0.15050710193555   -2.26013468214321   -0.91485299236634
N           1.94755554025811    2.66219857201029   -1.37694204811688
H           2.34733430912363    1.72826704919767   -1.34098602701667
H           2.66133588175323    3.32108164855643   -1.65907172363567
H           1.20986239657200    2.66370419509725   -2.06876516746026
