    26
        -50.46272427  Gyration_radius:  2.48114801408 Dipole_moment: 6.118
 S          -0.62753987780520   -1.48440836267226   -1.69453691732194
O           0.00119940472140   -1.82152937827859   -0.40225268031640
O          -2.06660810821549   -1.50659626607209   -1.63731135542266
O          -0.03902696570913   -0.28448637565994   -2.23628808674844
O          -0.22371813148982   -2.68048989700596   -2.66832657102804
H          -1.03384894568709   -3.17931157352921   -2.68510979794064
O          -0.45780771554453    2.27490241297193    0.46227080013681
H          -0.95954103015706    3.08481618413753    0.56421221371038
O           0.86630073435374    0.92432098539258    2.35796608006048
H           0.36670866448506    1.48064441274165    1.71496621160194
H           0.95705350160360    1.43797044298360    3.16107350619125
O          -1.08252900877794   -1.16412120466834    2.00311933264465
H          -0.73562914340702   -1.59834481353924    1.20413037221294
H          -0.38436315759853   -0.56857206432787    2.30568184991540
O          -2.24001109994642    0.44503841223889    0.16485986620997
H          -1.14250066613943    1.56351697953749    0.25484655986342
H          -2.27503415218540   -0.17618326686272   -0.58657731491407
H          -2.06442308221321   -0.12263873293716    0.94401161097087
O           1.47521450967573    1.68122664107527   -1.38666644362726
H           0.94108289150654    1.08086252205546   -1.94790312337735
H           0.81642189211291    2.11428479083304   -0.81398457790106
H           1.93857220110982    0.53264106278178   -0.47680626200496
N           2.01357679149323   -0.31011015437648    0.19645502908058
H           1.81798435938452    0.02862470057086    1.15008007423855
H           2.91481438125587   -0.76964817582429    0.13785420737755
H           1.22365172317372   -0.98240928156605   -0.08576458361224
