    26
        -50.45388634  Gyration_radius:  2.45366846499 Dipole_moment: 6.309
 S          -0.49043643398730    0.95619045371744   -0.09769488753869
O          -0.03419949318410   -0.25404539254566   -0.83292828653266
O          -1.94357308627998    0.94529357933041   -0.01491587212098
O           0.15814367692058    1.02292696908571    1.18792816764850
O          -0.03093079673603    2.17184660657331   -0.93699878116493
H          -0.55739665966411    2.07700520691553   -1.78263386339996
O           1.38371603327566   -1.03283155135808    2.63166639872196
H           0.81168984215110   -0.30371510064642    2.90373271590000
O          -2.36634324027848   -1.02333316753277    1.63958511892453
H          -2.26512152101231   -0.20115833864687    1.09537045860668
H          -3.22301408312517   -1.39212279492121    1.41515574045314
O           2.55978735259626   -0.53194600700661   -1.39752134048717
H           1.59813885220963   -0.37630845188411   -1.31079252425346
H           2.66954369389174   -1.46806251710316   -1.57284102085676
O          -0.11946238753057   -2.02404192570407    0.92890904778155
H           0.59015684514396   -1.66057705079894    1.69506469904446
H          -1.03634337506553   -1.79234222411846    1.29688121628176
H          -0.02758994436663   -1.35741538948486    0.13528884678440
O           2.82068150136253    0.48576074729147    1.11665125811218
H           2.10428168091244   -0.56758922972097    2.10287518527273
H           2.95879787778487    0.15182003484453    0.21057659045498
H           2.00080395355918    1.00653588551004    1.07406583395393
N          -1.69190278670925    1.44532340612318   -2.79691428017469
H          -1.34424839418048    0.61779244984063   -3.26293420639438
H          -2.28794864246803    1.95432467265613   -3.43635484374962
H          -2.23723048524207    1.15066913959192   -1.99122139127379
