    26
        -50.45023498  Gyration_radius:  2.51145104132 Dipole_moment: 0.805
 S           1.35193841625627   -1.12673647641997    1.04152407429992
O           0.41457505301236   -0.41768663955042    1.88412797833736
O           0.78120640149596   -2.24271219082515    0.32008120792406
O           2.06523483724839   -0.21533720949266    0.14191116129563
O           2.44848688978096   -1.73916225453828    2.00375589885622
H           2.81853911613272   -2.40212140692603    1.43151552052333
O          -1.33064950931852    0.11523306369581   -1.98676103527047
H          -1.71895045866481   -0.07498667419780   -2.84216928730175
O          -2.20320383343901   -0.90468121425399    1.94347745315780
H          -1.24796753380518   -0.69016504284104    1.99452124929251
H          -2.37710925844585   -1.51012700944732    2.66567545842407
O           1.30941874415477    2.81841134980982   -1.08952020726607
H           0.54813576676599    2.59085032452822   -0.44935866134186
H           2.10994245849049    2.79950657777217   -0.56004723278809
O          -1.71281193590517   -1.92955580179256   -0.50995736546201
H          -2.10438661833011   -1.59864352782612    0.32309743995004
H          -1.51441070494481   -0.70291013297115   -1.40981354928792
H          -0.79914273365004   -2.18644358648801   -0.26374786918597
O           1.17491815268180    0.51026508525728   -2.04923212896186
H           0.15808522150749    0.32179282734050   -2.05295846694175
H           1.26176857901815    1.53217132411567   -1.80840116760359
H           1.56257255954126    0.08174726653958   -1.17493650609500
N          -0.56122275437307    1.89016397253777    0.46375764774029
H          -1.06173012085289    2.48324830582065    1.11335957565289
H          -0.12266404200020    1.14606427074774    1.00772167233048
H          -1.25057271235612    1.45181480940382   -0.13762287027372
