    26
        -50.45114671  Gyration_radius:  2.59719684697 Dipole_moment: 3.631
 S           0.56326764342975    1.25125207312203    1.05138020725427
O           0.47483202423538   -0.21860731753763    1.48246597184097
O           1.40544563991016    1.33052997507419   -0.11392123476412
O          -0.75213801916536    1.80443192404793    0.90125903406548
O           1.26910353869173    1.92607133982109    2.23587238893831
H           2.21334055917277    1.53333343847443    2.19491640705523
O          -0.69375358036913   -2.54131168757312   -1.17618101400706
H          -0.13352528056994   -3.30464575921772   -1.03412491878450
O          -1.86384023878985   -0.04741077659104   -2.71572515257352
H          -2.01275790693894   -0.99576845026307   -2.66868747888730
H          -2.27738540407874    0.32581084120270   -1.92129170199922
O          -2.86882780711050    0.78396985351852   -0.25172571811745
H          -3.64221367850814    1.31346609976524   -0.05068537564620
H          -2.09863339926155    1.26722239094392    0.12309181964734
O           0.73803739078181   -0.49320050022607   -2.00674256586813
H           1.04135166673966    0.17612547327031   -1.37000179785654
H          -0.09435023403804   -1.81271213550072   -1.49030220895802
H          -0.03122195940503   -0.10210020532643   -2.46098278290228
O          -1.68006586775328   -1.35417046898011    0.96003410564428
H          -1.38705804884756   -1.90071509804128    0.18648332114118
H          -0.46030633351929   -0.68876755103688    1.31526251734233
H          -2.26669049120841   -0.66983991469997    0.58696390497968
N           3.47828315785093    0.74339018074754    1.70180432364480
H           3.47406538134620   -0.22254267242452    2.00118282058873
H           4.41530838375931    1.11336445926636    1.79160700916601
H           3.18973287365121    0.78282449816146    0.72804811904235
