    26
        -50.45114637  Gyration_radius:  2.59755283095 Dipole_moment: 3.640
 S          -0.99846961822749    1.18164147434869   -0.76331030912358
O          -0.57184493301184    1.27539315901130    0.70750978913162
O           0.18901473851303    1.12489606952083   -1.57562448895639
O          -1.92221849946334    0.09860087472713   -0.94377779041582
O          -1.71995014100651    2.51435076308063   -1.00902539403485
H          -0.96270656773744    3.20013457475348   -0.95025152168248
O           1.67526549764977   -1.45828178939054    1.84490850530386
H           2.29238818048738   -0.98927349106829    2.40695827323743
O           0.72743026684368   -3.14779305060654   -0.64357733404530
H           1.10200655766829   -3.30140782521998    0.22813353639852
H          -0.21126698631030   -2.95007271646228   -0.49783450779713
O          -1.85936080655037   -2.33875179453842    0.00876657762302
H          -2.69838286200678   -2.77619403052891   -0.14519951829010
H          -1.91133829265458   -1.47200082316356   -0.45300466779494
O          -0.87106005663892   -0.80718684963848    2.04121042723917
H          -1.31358658275131   -1.44814345827104    1.45386313266514
H           0.07458213154523   -1.10136991072187    2.08773374028720
H          -0.75197382113165    0.41002201446891    1.29279108295503
O           1.96559852010670   -0.71085551634451   -0.66376695760986
H           1.84151210608310   -1.13357204839693    0.91994319491961
H           1.62271840472690   -1.56435552498995   -0.98779911308638
H           1.38441453253900   -0.02828278948249   -1.04005424493699
N           0.47255375779455    3.82975013349920   -0.83974946891839
H           0.74829559059095    4.64258532743621   -1.37485008212846
H           0.92290530477629    3.00290030071831   -1.22255225115497
H           0.77347354816150    3.94726693722962    0.11855939023291
