    26
        -50.45114629  Gyration_radius:  2.59693586411 Dipole_moment: 3.641
 S           0.48911136222958    1.63057453978005   -0.28436150166235
O           1.39208607856647    0.83344576759177   -1.07335778390428
O          -0.93932562075149    1.12933553712242   -0.53457626619126
O           0.76376903893028    1.66386154213593    1.12353683682267
O           0.46353799654617    3.06384530563367   -0.83386041417772
H           0.35840196661929    2.92216615016545   -1.84208638953447
O          -1.46080961891216   -2.48597514134481    0.12471401890767
H          -2.04189332850219   -2.73830456739828   -0.59322516236904
O           0.21944567374151   -0.10157040159960    2.97825177715030
H           0.53206101478591    0.56821155915262    2.32950486740427
H           0.37515767631975    0.27227469154537    3.84711746359131
O           1.17899173102664   -2.46027450795512    1.84209305815962
H           0.93642692628958   -1.65170556720184    2.32030533495689
H           0.37080414368163   -2.97556789834098    1.77038486549822
O          -1.94942736299645   -0.18943214031947    1.32216036249695
H          -1.39401328476850    0.61925287230227    0.27553928662990
H          -1.87770131210113   -1.09535156689784    0.92590755843714
H          -1.30320994039920   -0.17357872597775    2.05271040505442
O           0.91342309176285   -1.82225781466186   -0.80291975747243
H          -0.58926932689700   -2.25351832540747   -0.29349880119201
H           1.13348867222969   -0.88796336078866   -0.95808268211941
H           1.34033062750551   -2.06224960251248    0.04037234779116
N           0.26559541487027    2.22685951409011   -3.24733779498040
H          -0.67193147934646    1.91875270968308   -3.46830249690891
H           0.80885507939085    1.42279798932117   -2.94507620236366
H           0.68609478018229    2.62637145188752   -4.07591293002053
