    26
        -50.45469711  Gyration_radius:  2.50995993888 Dipole_moment: 5.571
 S          -0.17314533478330    2.19870475473389    0.16622715389829
O           0.17401451660040    1.31331317046145   -0.93245304954709
O          -0.22948463679514    1.35971960631918    1.46286639775381
O           0.70981732060235    3.29025818655040    0.37877797605212
O          -1.61169435220659    2.68294517588754   -0.03571889916747
H          -2.21755273269244    1.83501032624088   -0.15862999514039
O           2.08155244394368   -1.37916551863306    1.10122556109049
H           2.71524188592991   -1.59215508376882    1.78772492305069
O          -0.82987268508547   -1.07590370626863   -1.52958371800457
H          -0.43312766594642   -0.18313918256159   -1.53046553859732
H          -0.08609035430487   -1.67937813742197   -1.70940036580802
O           1.43505175752752   -2.59066353674650   -1.32304171869853
H           1.76956854772569   -2.17497006313359   -0.50998782232081
H           1.50911449984732   -3.53802435577825   -1.20190305679687
O           2.56002118330505    1.09335574818433    0.24068375523874
H           1.87135436102214    1.12779536715477   -0.44407812932147
H           2.45910683122553    1.92549019775699    0.71330852416245
H           2.28908884318274   -0.45620577226530    0.81566009999656
O          -0.64673617013111   -1.10840949301340    1.10805633701974
H           0.27781613637979   -1.38019747116453    1.24956695963434
H          -0.45335037009868    0.36401082256845    1.32464276827646
H          -0.79322571392749   -1.19724464513143    0.13044844171410
N          -2.97460641346585    0.52569704641381   -0.25983828075522
H          -3.94199104491745    0.65752188315762   -0.52416166702651
H          -2.93900997255118    0.04614118741068    0.63165538645562
H          -2.52186089040270   -0.06450650695226   -0.95158203315955
