    26
        -50.45942984  Gyration_radius:  2.42422931639 Dipole_moment: 1.902
 S           1.14338809783866    1.47073839353162    0.30670366990564
O           2.52269399972168    1.02495194778386    0.47203618116619
O           0.59622365920182    1.15996570820768   -0.99461846003831
O           0.30161582758611    0.98790169044634    1.39245258264989
O           1.17792569880046    3.04406260325225    0.41541431251338
H           1.73121676005086    3.16902915097586    1.17886332453951
O          -1.22826747788809   -2.14113513407935    0.17757135066507
H          -1.93190839959992   -2.78817116142875    0.12494219545622
O           0.67398437728116   -1.56626442660813    2.02279148113168
H          -0.06340836547261   -1.95445715630826    1.51016046559704
H           0.50779421369836   -0.59854439741741    2.00539371385862
O           2.49969567637825   -1.47499419431432    0.32026680339819
H           2.67309832277421   -0.46007759235156    0.37557343545912
H           1.83088779871077   -1.64186162408420    1.12457047555528
O           0.77660089004580   -1.43314578158485   -1.49122603721417
H           0.67050621409319   -0.45696230645927   -1.49046830478862
H           1.87803744218254   -1.57437259379465   -0.53093915783486
H          -0.01080350378137   -1.78587675304536   -1.02703050793958
O          -2.18481405493702    0.20081240036815    0.64093908927790
H          -2.33829725172409    0.67478286440786   -0.20883114275487
H          -1.67236549522740   -1.24826008009734    0.34200722510097
H          -1.37559005400247    0.59855715680724    1.00924153411596
N          -2.16267743441889    1.55773317610063   -1.71354508808500
H          -2.46657510779613    2.52314123687700   -1.71603351700694
H          -2.40229003218415    1.15749669057590   -2.61189319273362
H          -1.14667182138692    1.55495017221957   -1.63434241200598
