    26
        -50.46272420  Gyration_radius:  2.48142196926 Dipole_moment: 6.100
 S          -1.87418727110426    1.36934264983444    0.28662128875878
O          -1.12614837574086    1.24011797953124    1.51291949095660
O          -0.96062490095632    1.33902967924961   -0.87233977002151
O          -2.99372359706530    0.47514878205220    0.13854300482340
O          -2.49957133363730    2.83576137347066    0.27476311842498
H          -3.36770649198098    2.65550510498169   -0.07038503690218
O           0.82284726871290   -1.93052442303088    1.09141057310675
H           0.82165227805808   -2.79409682619243    1.50656017114085
O          -0.48665828127549   -0.89667922883919   -2.34533706574645
H           0.45386383193671   -0.99088845984032   -2.14484134653548
H          -0.74806792901111   -0.02642231257707   -1.99663941283418
O           2.10963635063158   -1.19134149002671   -1.13785151703085
H           2.75113119153785   -1.84775119139402   -1.41097648556413
H           1.67589282479932   -1.53437267261290   -0.32136129108670
O          -1.50458547601967   -1.72795254326201    0.01710036483921
H          -2.12720289349095   -0.99565854101136    0.18456494390881
H          -1.27222822156079   -1.63970687876211   -0.93074285805522
H          -0.11574615406988   -1.80277633572322    0.74378140588508
O           1.28873048034079    0.51530994494864    2.23519866753575
H           1.55526909994619    1.07930126293098    0.83102620673972
H           0.36342552595535    0.83872308098940    2.23862776013518
H           1.20411496922020   -0.43521675890310    2.03802767371478
N           1.54322636172259    1.32877059563039   -0.22109584779868
H           1.94966082396240    0.53562619836387   -0.73889315087117
H           2.03106952315304    2.19518817710483   -0.41641739994627
H           0.50593039593616    1.40556286308736   -0.49226350757699
