    26
        -50.45942942  Gyration_radius:  2.42441379873 Dipole_moment: 1.886
 S           0.15776679881924    1.69615752704604    0.81328200565993
O           1.50524257983394    2.22778610914340    0.63888070974842
O          -0.53858375019881    1.48716771963971   -0.43606074196750
O           0.16709976637039    0.50370474519572    1.64896252258917
O          -0.64745431988554    2.80315012643473    1.59735102298915
H          -0.02255031489349    3.04927608996801    2.27087937720191
O           0.31742687549562   -2.36285364372371   -0.66562308515586
H           0.12624331986818   -3.26316462017354   -0.92902688188097
O           2.81864577397789    0.48302301557059   -0.58768632806365
H           2.68467811882108   -0.29453585502586    0.11982710847116
H           2.40737587775319    1.29900148098710   -0.10992895206384
O           2.08136604824993   -1.24213445371761    1.06101295256905
H           1.41422145274067   -0.65930016117858    1.48486963051636
H           1.55919635711936   -1.85008217062352    0.49951280995843
O           0.86033848674946   -0.09379547385859   -2.03223609115448
H           2.10748840138781    0.24948655523069   -1.33565482306990
H           0.62133652863561   -0.98385317446868   -1.70018786748364
H           0.24014871808068    0.52875495520200   -1.59407522331492
O          -1.54096772554050   -1.45315733435484    0.86182059157951
H          -2.21568206558960   -0.97843550105798    0.32357566761674
H          -0.45547709412707   -2.06394140042558   -0.08700888577749
H          -1.02050492557451   -0.75049165084936    1.29090053779893
N          -3.09653734291285    0.18318189335402   -0.65073833857917
H          -3.37128291261878   -0.00259666448075   -1.60708317473178
H          -2.29883799485499    0.81691700981494   -0.67510330166806
H          -3.86069665775016    0.67073488643481   -0.20046122176525
