    26
        -50.45469736  Gyration_radius:  2.51017806229 Dipole_moment: 5.583
 S          -1.77346447896823    0.62801106779752    1.16490226929952
O          -0.74532415499018    1.70797896599157    0.75774729507215
O          -1.22653877479846   -0.67266927271585    0.81790939379691
O          -2.09683234830973    0.81339976925055    2.53500441048193
O          -2.98520983760819    0.90058909679917    0.26946281784486
H          -2.67812508612287    0.77784313760300   -0.72671252480767
O           2.53811252782516    0.23379882947259    0.97662392658343
H           3.25901010810942    0.67269717793297    1.43038406768334
O          -0.06817628472715   -1.44293026931167   -1.44872365088372
H          -0.55889619782120   -1.37302711134178   -0.60688893820594
H           0.74943127572422   -1.92237283375969   -1.22157280926931
O           2.39946622984689   -2.12646127634103   -0.49620307297069
H           3.21779354652848   -2.20647896015362   -0.98759831317008
H           2.50081398153610   -1.36367577063161    0.09859188247571
O           0.86629212868336    0.99955311682265   -1.05757799671815
H           1.61835986383013    0.84226085639441   -0.45907471352384
H           0.55733359469492    0.09483784328434   -1.32430061213992
H          -0.12334775002914    1.44108670277306   -0.01804058900097
O           0.58274188169190   -0.21720822184758    2.72498948065547
H          -0.02325583964772   -0.68197430197835    2.12405021065679
H           1.83470711477793    0.09183254973635    1.65593414701333
H           0.01938220036330    0.41867943646785    3.17689006209437
N          -2.08205258673930    0.62559906440638   -2.11142770286588
H          -2.78284545271047    0.65419957503804   -2.84018009016957
H          -1.58981569377123   -0.26147893892758   -2.16252439216659
H          -1.40955993738554    1.36590976724382   -2.27166456778082
