    26
        -50.45469727  Gyration_radius:  2.510084803 Dipole_moment: 5.579
 S          -1.86448904868157    0.92844660630251    0.74577350997190
O          -0.55617456215562    1.46533046843520    0.41161841154746
O          -1.77346945244886   -0.61417887253859    0.72170338441964
O          -2.38892391373600    1.32519072799899    2.00428764068546
O          -2.83423542690053    1.26958774148828   -0.38907687524147
H          -2.40699562081833    0.92896147145124   -1.28517562341183
O           1.59917233220862   -1.53057549808348    1.59589677502089
H           1.78206139303003   -2.19925646468979    2.25743723645633
O           1.08144644732851    0.75919100615509   -1.56086583529401
H           1.97603689292800    0.65617784526512   -1.18813760920268
H           0.57221183350362    1.21868197049877   -0.86513152943896
O           3.24264749067785   -0.05159853962586   -0.09895264636229
H           3.96252009371999   -0.62123699769704   -0.37267631049409
H           2.73935930601247   -0.53712716896210    0.57691050128326
O           0.10065314101145   -1.54042444983206   -0.70034484758635
H           0.50587522473575   -0.74144516551474   -1.12763124128848
H           0.68872314243998   -1.75133660293895    0.04685044245461
H          -1.04574285985058   -0.99476017918040    0.10041375097320
O           0.25055446548764    0.45513309594613    2.74547559834006
H           1.09458955920384   -0.81890037429603    2.05998418125543
H           0.18378585086172    1.03375896533148    1.96760476729289
H          -0.64148978669452    0.44736581574296    3.10627485928382
N          -1.70029225130909    0.33544081214377   -2.48721989300707
H          -2.14847235310445    0.58125803335418   -3.36004229053512
H          -1.67806782878304   -0.67356348413693   -2.40092095503337
H          -0.74128405844328    0.66987922733806   -2.50405542200413
