    26
        -50.46824842  Gyration_radius:  2.38815628025 Dipole_moment: 4.288
 S           1.26099945335616   -0.13054842162291   -0.25653882861143
O           1.94466449545233   -0.49254276349400   -1.49084424975023
O           2.04010455329613   -0.29218859239423    0.94359163410934
O           0.66095445404070    1.20680245062863   -0.37501706817642
O           0.04205357188430   -1.12434702293337   -0.18638610455613
O           1.05622973986355   -1.85764195994635    2.87612239104002
H           1.52049852070482   -1.30201395111879    2.21661862555691
H           1.40945685255248   -2.74192439517942    2.77397881738607
O          -2.03107799429186    1.09752557343340   -0.31399109632709
H          -1.06770475196930    1.26223857104923   -0.29096853920432
H          -2.24858654295724    0.73199714509644    0.54909080363500
O           0.48746332413647    1.67940456715605    2.24586105177643
H           1.29753409640684    1.29476158400778    2.59270417597048
H           0.61972644510764    1.70941389606011    1.27955208149040
O          -1.85070859465496   -0.73532570447974   -2.21034448461674
H          -0.67189116075626    0.07477358838492   -2.81706123304910
H          -1.37718658263513   -1.37867151853751   -1.66691700518160
H          -2.16296749812592   -0.05804983138237   -1.56054720148933
O          -1.07586843028910   -0.45472444295337    2.01717569417875
H          -0.45486734048904   -0.90498750782006    0.67091779716484
H          -0.59219594364871   -1.09706658260549    2.56682560993528
H          -0.63607019549175    0.40753567281362    2.22272402166627
N           0.22705572080430    0.65186096473085   -2.96595325506821
H           0.15766231870643    1.49923718566977   -2.39684767017527
H           0.41075881017507    0.85667245572165   -3.94277065722085
H           1.03396267882579    0.09780904973563   -2.48097531048502
