    26
        -50.46824847  Gyration_radius:  2.38796363015 Dipole_moment: 4.304
 S           0.10956467597520   -0.29627965174760   -1.25382588937664
O          -1.05382927648528   -0.38859696650799   -0.19720261690356
O           1.08661841727628    0.63494121870928   -0.67010676941082
O           0.64218227795423   -1.61964040287079   -1.44980973765229
O          -0.52036742746885    0.29652604013886   -2.42588066018555
O           2.49405195914049   -1.21120828729745    0.64657646390314
H           2.17279147816153   -0.45933002849573    0.11413229711805
H           2.50204906775809   -1.95650668294135    0.03910674006736
O          -0.23433318623629   -3.57191444514315    0.15464942690697
H          -0.97047724236748   -4.01626535419984   -0.26704496501241
H           0.11763035508357   -2.94179892466725   -0.50735996550914
O           0.32068366709092    1.48015214470802    1.77170629653730
H           0.28237217131070    0.68506745095756    2.31228096160476
H           0.72364888712871    1.20009081610175    0.92613504013122
O          -1.99699339380978    2.10045446513312    0.66204812041380
H          -1.22419155977263    1.99978590920685    1.27121425216270
H          -1.21879976745023    2.55727641146358   -0.60239609406249
H          -2.22524708263894    1.19229811480404    0.42379780542161
O           0.11835497136627   -1.47258931107858    1.80363008658744
H           1.07331082590153   -1.39173823189268    1.55736526583033
H          -0.64991277022842   -0.80753911944811    0.63434959339841
H          -0.10629996293700   -2.38814804986989    1.55829408325317
N          -0.53737532824393    2.63208354602925   -1.43519717877858
H           0.41685443383071    2.59179833739856   -1.06846537385783
H          -0.69693115058392    3.45520820504959   -2.00691715514129
H          -0.62535503975589    1.69587280644870   -1.99108003745488
