    26
        -50.46272427  Gyration_radius:  2.48132432373 Dipole_moment: 6.100
 S          -0.56754625579536    1.78885413581067   -1.39527941431512
O          -0.31334362900113    0.39126126697653   -1.79637234473307
O          -1.31680825669434    1.82417033474043   -0.16349583422848
O           0.61922575215552    2.60446971108492   -1.43051815556206
O          -1.51698436389345    2.37371369223217   -2.53472304817468
H          -0.89853556508639    2.90238639360321   -3.02822472760255
O           0.73341747012410   -0.18508857230701    2.24159279915140
H           1.22860743396664    0.00141842097884    3.04041087240248
O           2.01641612371515   -0.91236976722654   -1.28168277818278
H           1.24465466234577   -0.46299646129271   -1.66862634189467
H           1.66032509609004   -1.59488082392283   -0.69764686335487
O           0.74844870201068   -2.44218143260383    0.80033050721698
H           1.17798344487043   -3.15866206282037    1.26851983735349
H           0.78741539185432   -1.65032880676976    1.38675369887085
O           1.91302624201937    1.18901497371536    0.41590790882270
H           1.13093260822651    0.41773197890581    1.53692368773991
H           2.21387773186262    0.48213128527277   -0.19235453870680
H           1.46753660288108    1.83563087127166   -0.16315216982895
O          -1.94254217967308    0.16338597505750    1.76768268558330
H          -1.81757334182685   -0.79789710115322    0.57510449827656
H          -1.05530153419557    0.08201589911470    2.16232973466391
H          -1.87377087572586    0.95509476215185    1.19395479332028
N          -1.51017226117966   -1.34930817723921   -0.30268155084309
H          -2.28617825982246   -1.82274982417091   -0.75045888189715
H          -0.77135487477281   -2.00962456077776   -0.01900173817843
H          -1.07175587445560   -0.62519210063226   -0.96529263589988
