    26
        -50.47126132  Gyration_radius:  2.42925104868 Dipole_moment: 4.303
 S           0.24043633974758    0.90888327797323   -1.66358256204254
O           0.89061806024890   -0.38426403244128   -1.47880856298799
O          -1.01426508599561    0.76786042469995   -2.38789037236962
O           0.10327588329583    1.63539876583427   -0.42144965983447
O           1.19030191012977    1.76487922144370   -2.59011898819533
H           1.04270725918937    1.37094709875244   -3.44334296802119
O          -0.11271949756070   -0.66881232588589    2.40397015954558
H           0.06008989677737   -0.92935445858287    3.30903050304829
O           3.18921429929719   -0.66699493205475   -0.17140883966270
H           2.40832761528716   -0.55035283243715   -0.75034337582184
H           3.30983702083096   -1.61299328231174   -0.07354734736090
O          -0.52447608135995   -2.03851684922953    0.06913079463831
H          -0.33725521139605   -1.69685926034021    0.96398524568497
H           0.08606996325371   -1.55860338181195   -0.52763729052787
O           1.77488300040028    0.88696057005418    1.55642542775798
H           0.65600938792830   -0.08180263561838    2.12916679613774
H           2.45889410787615    0.37909521927521    1.08098761687427
H           1.25942214815067    1.32764015843264    0.85554217023623
O          -1.87624223963721    1.16368959362626    1.36658592327475
H          -1.36173527650876    0.55129504295515    1.92550957192971
H          -1.20581430877105    1.60598404703791    0.81439892071364
H          -2.45020683003812    0.22702418514479    0.22569290483063
N          -2.48760542576104   -0.44642038056679   -0.60239675628372
H          -1.84233873917304   -1.25815252696163   -0.35031163440490
H          -2.02717838035720    0.04899667168744   -1.41509660511314
H          -3.43024980585544   -0.74552738867527   -0.82449106204104
