    26
        -50.47150108  Gyration_radius:  2.4263544757 Dipole_moment: 3.425
 S          -0.51139906444965    1.80533465563467   -0.13603271534815
O          -1.79046109778656    1.92307815956117    0.54673102717146
O           0.55457619838338    1.45023573276778    0.78909462688785
O          -0.56656203987100    0.92564676078284   -1.28636099162538
O          -0.16393525654042    3.23792070096931   -0.70246979535550
H          -0.18880729877525    3.77790205918772    0.08023240845327
O           1.12515486340235   -2.21041628113257    0.33658020459286
H           1.70904655043693   -2.96931264821396    0.32713159324841
O          -1.26982490441180   -1.62497629701588   -0.85255195393943
H          -1.04494481313044   -0.74138900829186   -1.20409454373370
H          -0.42680888601366   -1.98764670704925   -0.52067019538871
O           1.58774912139511    0.66927997427743   -2.83258794964579
H           1.32113430283083    0.13736253836671   -3.58408479422899
H           0.76808518219938    0.88050120220102   -2.34252415074553
O           2.44152522950568   -0.08935847289969   -0.35886269326688
H           2.35720119462627    0.12790231191345   -1.30508671233999
H           1.87968019990699    0.56541305547469    0.09709951139898
H           1.67725256897485   -1.42928650485561    0.03017970803151
O           0.19804960425361   -0.67206367599045    2.41768697545830
H          -1.31709551951466   -0.66439449807031    1.96355667421429
H           0.60455162971889   -1.34795583988923    1.84376528062935
H           0.45216269374486    0.17856313732259    2.00958679273424
N          -2.17994016988457   -0.53333937693652    1.34723678825118
H          -1.99542127965861   -1.09556774779869    0.45970179001874
H          -2.17961176047130    0.48626194908013    1.06655410388966
H          -3.04135727881801   -0.79969518941257    1.81018901063685
