    26
        -50.47150107  Gyration_radius:  2.42626514292 Dipole_moment: 3.425
 S           0.52359909959106   -0.99984906162980    1.50564620716914
O          -0.62265514072091   -0.11058871897616    1.62234137906946
O           0.10908138676017   -2.37125680296070    1.25390200198257
O           1.50268000044884   -0.52368585837764    0.54923981381572
O           1.24940098276297   -0.99323162131178    2.90821993353631
H           0.58496441797921   -1.35733692484671    3.48335306051188
O          -0.89489268763136    1.64762827909294   -1.65859409880402
H          -1.11493540972133    2.42371882433622   -2.17456099228262
O           0.78308644813610   -0.48205890348882   -2.03307041460422
H           0.25015576606717    0.33519036572967   -2.05604415569031
H           1.23102442159296   -0.46866374325967   -1.16473551369955
O           2.57373098896867    1.89293624333972    0.88061206939546
H           2.28003784882431    0.96044671418072    0.85135904055579
H           3.26110602877473    1.97786041106214    0.21800735300167
O          -2.49131222342754   -0.14888247999072   -0.32459903642192
H          -2.11979988201267    0.56353707335365   -0.87772539170486
H          -1.77900158202400   -1.45109946291094   -0.87116882884695
H          -1.99963011647638   -0.08517985564704    0.51730019710677
O          -0.10343091924962    2.36561267087276    0.70214821856815
H          -0.33635589610909    1.54220257825014    1.17129934342173
H           0.86542051823832    2.43158296994456    0.78374266785413
H          -0.56686243016037    1.98560235315115   -0.77145224655596
N          -1.00537211153818   -2.15185700365204   -1.09924195436956
H          -0.56383453124709   -2.40353319099030   -0.17190480349346
H          -0.27125576824689   -1.60958101819373   -1.65141171492447
H          -1.34494923958025   -2.96951384706868   -1.59266213459017
