    26
        -50.46824848  Gyration_radius:  2.38797003474 Dipole_moment: 4.305
 S           0.82768367431965    0.45838680144755   -0.88151571372555
O           0.97777087266880    0.14100108398688   -2.29525509474091
O           1.41657022621343    1.70613180752852   -0.46945682515191
O          -0.72949822096183    0.55999692988407   -0.67337655377682
O           1.25358624093056   -0.67868685132420   -0.05195428167858
O          -0.16698790775119    3.50645037902810    0.71585314746807
H          -0.50629285061509    4.10871076157988    0.05300819611406
H           0.48407466203600    2.93664322544140    0.25689118406521
O          -0.81593075747619   -1.75472664311284    1.29823417024843
H          -1.13571217682690   -1.05071029490771    1.87090048138483
H           0.01224140709097   -1.41418467792284    0.90584103834051
O           1.69088053261136    0.73320684916023    2.17025252810849
H           1.71542605162571    0.12131035855290    1.41061959191767
H           2.07360813944398    1.55077456118082    1.83916743921695
O          -0.90516397188185    1.15909528054324    1.80914440972680
H          -0.87128936492907    0.79004277302551    0.30495103892699
H           0.01189808073723    0.97943954172678    2.13438670267907
H          -0.91630331092503    2.12339617400128    1.67160977304475
O          -2.07594501101066   -1.86724452374503   -1.02284756902586
H          -2.09556306231484   -0.91087997537669   -1.15874154453553
H          -0.72239225716473   -2.23946321179135   -1.68831042748733
H          -1.79802777943295   -1.96827274764140   -0.07894353474567
N           0.31338553424453   -2.28776316805271   -1.98535425980222
H           0.48989600392723   -2.98664173172898   -2.69969969491866
H           0.87733902385987   -2.43878797954565   -1.14523477064662
H           0.59474624158429   -1.27722470193126   -2.29016944100535
