    26
        -50.45538159  Gyration_radius:  2.56575742727 Dipole_moment: 4.102
 S          -0.73698018903679    0.60353187727554    0.44461955747899
O          -1.56784434333423    0.57910888988457    1.74608092216631
O          -0.03535299668061   -0.70205507353569    0.37173198751513
O          -1.60943435340576    0.78197460715480   -0.68997218828049
O           0.25265645196727    1.66659701419594    0.60238462581695
O           0.54077411230245    1.75559557052975   -2.02882820379015
H          -0.33626252030573    1.35748043435925   -2.11081010552674
H           0.56069052280761    2.01745567761875   -1.09087064920695
O           2.58170893652648    1.35207902626163    1.68163206801534
H           1.69526485723653    1.61993941873903    1.32379389806528
H           2.47528336856113    1.27766511784791    2.63172861971074
O           2.66752096540475    0.24000612276124   -2.09891048474031
H           1.83264818853728    0.77884983210312   -2.18352335890984
H           3.39393400029294    0.85547456679149   -2.21649303604970
O          -3.64807907976926   -0.36809738782727    0.63195275542469
H          -3.32995555173881   -1.29589806389894    0.50327510635671
H          -2.46951436007821    0.21368723648805    1.46803873040243
H          -3.32462291078733    0.11158127245561   -0.14571507833909
O           2.41799458645628   -0.73009124727714    0.23081745705680
H           2.58776758695028   -0.40308592248304   -0.73601974908349
H           2.64207971194366    0.05393406140021    0.84966667370457
H           1.34308573787475   -0.78872156607842    0.29932840578997
N          -2.21027855728105   -2.59550335601370    0.17845908679718
H          -2.10436314101504   -3.33345992181652    0.86313206833397
H          -1.36899088990768   -2.02034671332660    0.21059459765843
H          -2.24973013356272   -3.02770147363358   -0.73609373631842
