    26
        -50.47150108  Gyration_radius:  2.42628893767 Dipole_moment: 3.428
 S          -0.46183218020261    1.31535843185005   -1.26387355596662
O          -1.91500284365060    1.33594838054726   -1.32466768784263
O           0.02210963009012    1.74066628080990    0.04124867466139
O           0.10066916195129    0.04626678845253   -1.67982659152086
O           0.05319252110661    2.38120271012641   -2.30936915082856
H          -0.38209681938173    3.17628935920576   -2.02084472349488
O           0.91411930975756   -1.38637436613278    1.87251538229837
H           1.46150549803357   -1.85958907782791    2.49970532816880
O          -0.60289387520857   -2.13003329899646   -0.28094915803098
H          -0.01857866887528   -2.03877053882466    0.49536635053835
H          -0.27572237547755   -1.47078645250064   -0.92375887418410
O           2.74737542897338   -0.21315943526168   -1.84163492905343
H           1.78383888489354   -0.06161990209111   -1.91374230899450
H           2.91231566264516   -1.07558418198531   -2.22603554425403
O           2.30035773897186    0.49421484808901    0.75121952097792
H           1.55615646539622    1.08203749452956    0.52103774141685
H           1.50773639696742   -0.69589912049411    1.44875188487467
H           2.68538068312397    0.23480919270431   -0.10555326514759
O          -0.99291035874657    0.55844787651079    2.24437908422551
H          -0.61050637396483    1.17346976793814    1.58844600954926
H          -2.08300917784235   -0.08708196374737    1.29730973725856
H          -0.32435536854963   -0.14591968641301    2.33580980217655
N          -2.53267465505890   -0.50557062346694    0.42311970272561
H          -1.90670591865498   -1.31842856878942    0.13095728390626
H          -2.44183458921465    0.23329467684489   -0.32789402483249
H          -3.49663413707415   -0.78318860113200    0.56828330138236
