    26
        -50.47000297  Gyration_radius:  2.46324471338 Dipole_moment: 2.790
 S          -0.89739441390850    2.02536487636851    0.01686944718680
O          -0.95681570000578    2.34032399599954    1.42345150329932
O           0.43100603873994    2.00160281708858   -0.54440723092640
O          -1.63110424372995    0.79717345486062   -0.32935206714140
O          -1.70738651256959    3.18890121268237   -0.71106325352480
H          -1.71787025828572    3.85521461182081   -0.03231043184799
O           2.22660229907740   -1.04467841447571    0.57769749700392
H           3.01528087512705   -1.21323899231907    1.09452956513098
O           0.06835930590172   -2.62842778555769   -0.05606577871978
H           0.92415982326940   -2.24916790717785    0.21763206517836
H          -0.58063623054606   -2.29793548542377    0.58710416933710
O          -1.67722571048072   -1.11713740442109    1.46912129508016
H          -2.52103803031138   -1.13326095025385    1.92230836729579
H          -1.72766192529984   -0.37962226715726    0.81451842692710
O           2.02593914800665    0.30767414423400   -1.80253273849750
H           0.65724868965992   -0.39755613640003   -2.05709781530237
H           1.61044587904626    1.10768009047799   -1.42262461241041
H           2.33171034715744   -0.19145536111730   -1.02355472772591
O           0.60288804328096    0.30372919303434    2.13089727577445
H           1.66134220201588   -0.44342767370725    1.13252529660428
H           0.19121168899687    1.16245984097773    1.92166013399944
H          -0.14250841256249   -0.31413400363944    2.18745448547604
N          -0.32101436897849   -0.82633873774037   -1.94716515984127
H          -0.22136034296185   -1.67691656658126   -1.31929402938191
H          -0.74683392384674   -1.05224949462035   -2.83812846587137
H          -0.89734427680281   -0.12457704686170   -1.41217320710650
