    26
        -50.47150109  Gyration_radius:  2.42628122662 Dipole_moment: 3.423
 S          -1.01843305396114    1.56365286717331   -0.24121184822482
O          -2.36532930807532    1.25184203134100    0.21101308954659
O          -0.06393514670984    1.51453610969099    0.85646945975416
O          -0.60540362872738    0.76040654439532   -1.37452672634329
O          -1.04417027284474    3.05673199963570   -0.75508955236550
H          -1.36372895651486    3.52902270773437    0.00629937845836
O           1.68511327975167   -1.76787955569166    0.54767598384677
H           2.46906358355954   -2.30898426268319    0.64527253706274
O          -0.54054722276427   -1.89891110143035   -1.04002957668215
H           0.30599432861928   -1.99752316024617   -0.56455360268849
H          -0.54707075816522   -0.97482235790050   -1.35754322792976
O           1.74780522743093    1.24842933780092   -2.52436169341184
H           1.78863046507358    0.69338807660737   -3.30478272916519
H           0.83356992604164    1.17499963162944   -2.18460167098381
O           2.37209084505403    0.68400927377299    0.06678898947213
H           2.00956018461600   -0.84191231950506    0.33270852268664
H           2.38284471922317    0.90543214447172   -0.88217520713074
H           1.56652055709790    1.11285190267517    0.41248781230834
O          -0.00703004330064   -0.68286311349602    2.42231372884976
H           0.67899249998247   -1.17495239687048    1.93367218832104
H           0.03375917123628    0.22155392111147    2.05492084099196
H          -1.35187405721214   -1.12260811083805    1.71541141190246
N          -2.09776211441134   -1.23740498238434    0.95908128589742
H          -2.36835934867685   -0.25636929570587    0.67172535595419
H          -2.89769997529191   -1.77627659886751    1.27061694043770
H          -1.60260089103919   -1.67634929242780    0.12241829942962
