    26
        -50.46824818  Gyration_radius:  2.38836483154 Dipole_moment: 4.274
 S          -0.37287869249771   -0.78390068601296   -0.95830575100791
O          -0.60694314415741   -0.51166039334628   -2.37005029311910
O           1.06204951985159   -0.69470132178792   -0.64918090922842
O          -1.03101073628665    0.43873972349313   -0.21652448941736
O          -0.98080927778473   -1.99026992846535   -0.45972261239727
O           0.96884185093821   -2.15758930595692    1.58097097179875
H           0.33205238829520   -2.84529610485548    1.36641695151784
H           1.17937942906789   -1.73740626501543    0.72585318863882
O          -2.64556816231680   -1.79114845299334    1.62393813763506
H          -3.54611704100483   -1.73266123214295    1.30358917122645
H          -2.08813237082320   -1.96345708144922    0.83730642275042
O           1.59908333484403    1.37559875221355    0.99038528163445
H           1.51587388143522    0.56897858613221    0.44426135704737
H           1.11356210547338    1.18750290509732    1.79949269705293
O           0.24546098232280    2.87875263282535   -0.71120086767047
H          -0.59738985121449    2.42555149032205   -0.57793328568607
H           0.81676524833528    2.54009550969708    0.02188561299026
H           0.85878079136356    2.04250279725037   -1.86774298809904
O          -0.61609084659154   -0.13304100240268    2.24420101925438
H           0.04552879394296   -0.86610468294991    2.18075809025531
H          -0.89406245214297    0.27700935404291    0.77598559394742
H          -1.46190320969996   -0.59683298764354    2.37811376725600
N           1.21851344192545    1.24543971821004   -2.49923489119981
H           1.58244515452230    1.57523478867052   -3.38732920205881
H           0.39193890601844    0.53931152261680   -2.60611131468831
H           1.91062993617865    0.70935169446577   -1.96982163843659
