    26
        -50.47395399  Gyration_radius:  2.40835021853 Dipole_moment: 3.049
 S          -0.35386638829123    1.27784779687586   -1.15852440395885
O           0.31701311903719    1.59519280346556    0.09537350631260
O          -0.10177199279156   -0.11644573175249   -1.54259016062501
O          -1.76800536190761    1.57445901615799   -1.11329307420062
O           0.28626784074589    2.17119446260553   -2.27724368898963
H           1.18085002519349    1.81207357289371   -2.38403618158740
O           0.82508721882442   -1.63517422514260    1.79752517975379
H           1.35649052342186   -2.16064702572922    2.39689891720401
O          -1.16548844146433   -2.06309403112754   -0.06907602780247
H          -0.76956296116022   -1.48521253245432   -0.75336195952832
H          -0.48383900666813   -2.11866915611404    0.62312915568154
O           2.29335748258868    0.31677553287927   -2.37210405902101
H           2.48740834238684   -0.07209481349704   -3.22697071362100
H           1.41758868542734   -0.04144918627416   -2.08957747839392
O           2.40435088186147    0.01674265309154    0.48080695612594
H           1.46296813794481   -1.08346342970796    1.27510680082124
H           2.75356766157946   -0.08404780560624   -0.41135112824088
H           1.70928674442513    0.70362183688812    0.39643547189419
O          -0.66199404608877    0.62461275072419    2.39608296298877
H          -0.25259042496428    1.17224079043555    1.69665966246972
H          -1.97601911629073    0.26181326995953    1.58757589859962
H          -0.13735688275658   -0.19659453220439    2.39653982447396
N          -2.60248045061815   -0.04436364789891    0.77858729959708
H          -2.20955123363666   -0.97975495671974    0.44838863725302
H          -2.42857279938665    0.64606381218585   -0.00153935204124
H          -3.58313758742856   -0.09162720393662    1.03055796483451
