    26
        -50.47395402  Gyration_radius:  2.40833468041 Dipole_moment: 3.048
 S           0.90416433535721    1.51147172940464    0.00733237066480
O           0.70498248167470    0.68101801325405    1.20133366471174
O           0.85488470602564    0.69671717958908   -1.19965092480929
O          -0.02721711257896    2.61615872988097   -0.03932644424684
O           2.34976125221890    2.10961402305934    0.11618418892456
H           2.90862240101259    1.34276341572417    0.31654832230514
O          -1.05447883961758   -2.32192054343493   -0.28510942655911
H          -1.21123779008661   -3.25601382130462   -0.42875573183578
O           3.08152490558583   -0.30124307214142    1.17988126392730
H           3.51831062623571   -0.28641387345497    2.03347968763801
H           2.13940560638241   -0.05180388797182    1.33875935974855
O          -1.68514017735351   -0.41856076235686    1.61501808712105
H          -0.78439759338745   -0.03687985790764    1.65907063265140
H          -1.58291495790882   -1.21434031728866    1.06445103309183
O           1.50343081723963   -1.81455407024796   -0.67962728963827
H           1.33194963880256   -0.90170189954437   -0.99477371001550
H           2.19478872671155   -1.71461736704996   -0.01620088957825
H          -0.07503068107393   -2.19014400608910   -0.37229902715941
O          -1.50617563396307   -0.24206316120864   -2.05871467058508
H          -0.60021405360411    0.11918003485746   -1.98489716850952
H          -1.47027419721769   -1.08354954452394   -1.56853664002881
H          -2.18426475736182    0.77908783708046   -1.05427732609676
N          -2.33646311137304    1.37381320531121   -0.18026599419386
H          -1.49871471256513    2.01372484970741   -0.11459282493286
H          -2.26756795319498    0.69873271776122    0.64301718440467
H          -3.20773393595341    1.89152445888561   -0.19804774700223
