    26
        -50.47250317  Gyration_radius:  2.4872567795 Dipole_moment: 2.880
 S          -0.94890054790062    0.52792078433806   -1.99111034804259
O          -1.83203638151612    1.34748369700729   -1.17036416717739
O           0.24403546584887    1.24825161225693   -2.39321548725656
O          -0.66925002897380   -0.75441323110077   -1.37379843720966
O          -1.74274287915984    0.21053974948341   -3.32479627237917
H          -1.75662026426502    1.06695609552445   -3.73803855818572
O           1.20437008991489   -1.74874935653935    1.75551800398866
H           1.78601560308320   -2.40156521351872    2.14540361280169
O          -1.41796991416807   -1.94537700228344    0.93018237156088
H          -0.53350099871559   -2.05850706983293    1.32393245898605
H          -1.24838744430773   -1.74982693214321   -0.00994323039120
O           1.92377906425610    1.52740185988324   -0.44818199954769
H           2.46933705975191    2.29012013055957   -0.64559730951251
H           1.26912162767121    1.46002800045238   -1.19194735572871
O           1.87216392826561   -1.24373511390522   -0.71093909103013
H           1.51045700631074   -1.62527343283249    0.81020021534168
H           0.97756524951264   -1.16760643898085   -1.09957665970494
H           2.19839806504279   -0.33249651642560   -0.67665522599098
O           0.82614151996593    0.96902375098305    1.99188897864388
H          -0.73593118070197    0.89161486564262    1.67380883499689
H           1.04782299715685    0.02482576706553    2.08432196953271
H           1.25978146668693    1.25524552463086    1.16579068884410
N          -1.70930481727065    0.63501019876846    1.33421879690898
H          -1.74797058007279   -0.42811637914200    1.29121823745579
H          -1.81538373699558    0.97980684675514    0.33622420999643
H          -2.43099038943474    1.02143781334538    1.93145578307220
