    26
        -50.47000629  Gyration_radius:  2.46322926108 Dipole_moment: 2.721
 S           1.52656171886752    1.29837124620774    0.94476196851334
O           0.99153642138785    2.62317441164296    0.74631541051622
O           0.80591568392381    0.49300667797816    1.90067612566677
O           1.72773851436381    0.56192761369544   -0.31287793482655
O           2.99976418067044    1.51464532409249    1.51254267347059
H           2.92796732017710    2.38878244857530    1.88068581590494
O          -2.40735700891263   -0.63857244113347    0.41837895385839
H          -3.33272146836739   -0.50543898795461    0.62693413082449
O           0.04099395175639    1.04247063823883   -2.26948083849220
H           0.72323869631480    0.90614405248133   -1.56903097583252
H           0.43727869448728    1.62056935182757   -2.92243552587201
O          -1.13929230808391   -1.43195461682542   -1.89063183086413
H          -0.83706071765809   -0.57090608496672   -2.22432006154890
H          -1.75891831095244   -1.22840321895219   -1.16552957871026
O          -1.40035425377329    1.74158837149684   -0.01321998491311
H          -1.13251657199444    1.65550558240800   -0.94129717280777
H          -2.00818446030450    0.27045945617064    0.36156857097671
H          -0.62046676848566    2.12368923401600    0.43024631952295
O          -0.47609864543180   -1.81887098579249    1.97105884465834
H          -0.01592097770180   -0.98635858689331    2.20052385120662
H          -1.31224697557944   -1.52230901463632    1.56802769532062
H           0.37862141037228   -2.04957111343269    0.68667768665547
N           0.87521903235615   -1.93578811450537   -0.25871937409205
H           0.12136006463143   -1.89260681258597   -1.00534458171725
H           1.54925298744390   -2.67161635066705   -0.43307375660510
H           1.33568979051366   -0.98793808049562   -0.24243643083150
