    26
        -50.47250306  Gyration_radius:  2.48721317113 Dipole_moment: 2.888
 S          -0.81743667008423    2.09393585382689    0.30043217313438
O          -0.29620351274303    2.50711530379839   -0.98841258073068
O          -2.11129301584689    1.43286908344534    0.18078852778823
O           0.12223407385388    1.31080515224359    1.07971148396689
O          -1.06863112436818    3.42481748683027    1.12227787475446
H          -1.56835107960246    3.93604430231393    0.49506807921195
O           1.80488323098756   -2.02273907076855    0.49439286702871
H           2.61297743253823   -2.52253016099479    0.61138618287128
O           0.58927666805635    0.51111696093540   -2.37233124316833
H           0.21758919005427    1.27998607956286   -1.86544468203569
H           0.55294360203476    0.76248367236688   -3.29636523012812
O          -0.20951328593288   -1.90643715611878   -1.38055575180727
H           0.53852336770588   -2.12569595512910   -0.79620309977671
H           0.04892355405081   -1.07939625753988   -1.82982634441771
O           2.30975087562367    0.44117229480572   -0.18350765836732
H           2.08067558716924   -1.08998897757604    0.25691813493505
H           1.99116241856281    0.49741571034213   -1.09625509968131
H           1.61841289516199    0.88966299523780    0.34384625353388
O           0.00302905059108   -1.06854710454482    2.34866355864156
H          -1.24167990786707   -1.22444251601873    1.36506261088672
H           0.70826580949384   -1.52632767765596    1.85546970077786
H           0.12762702835090   -0.12390496022446    2.14132294322424
N          -1.87945949103279   -1.14192598074416    0.51648818259644
H          -2.75087039839537   -1.64388957016884    0.64104561441299
H          -1.32886267139431   -1.50634550907487   -0.31582325308400
H          -2.05397361692552   -0.10525400918659    0.37185076536302
