    26
        -50.47000207  Gyration_radius:  2.46335629257 Dipole_moment: 2.812
 S           0.26356772166306    2.03926465649500   -0.82560334392036
O           0.25315094840826    2.01124023388248    0.61623300649024
O           1.57403432927540    1.97676790941451   -1.42572333167796
O          -0.66705384903406    1.03820810379299   -1.37235167110608
O          -0.34425674281700    3.43893188231429   -1.28525007551884
H           0.44058523620637    3.89026964599061   -1.57700281510882
O           1.03600861560285   -1.40813022489003    1.82539652636100
H           1.73673791672678   -1.79548484333501    2.35123595978932
O          -0.77830596708269   -2.51060831842409    0.07596581680846
H          -0.11044659382119   -2.31764324519415    0.75997507456468
H          -0.35584665957365   -2.28851813838807   -0.77040933817162
O           0.35438664086659   -1.26374188577951   -2.11912170593657
H          -0.03034526995972   -0.37892334467241   -1.90886952667667
H           0.43501681328565   -1.30289665531832   -3.07290031802949
O           2.19227738204508   -0.33889346282918   -0.26919814022907
H           1.78865961130568   -0.86017195677647   -0.98047851165798
H           2.10153161373975    0.58591656595829   -0.56434426033414
H           1.48888910074941   -0.91332247609155    1.09129329420900
O          -0.75236833099050    0.53684714852854    2.56890241472037
H          -0.34136369953874    1.25125245143915    2.04202727273805
H          -1.68680484670400    0.08567417928000    1.40317062775777
H          -0.09419000281537   -0.18134998005488    2.54613032849144
N          -2.07544275717165   -0.24192197629843    0.45736595519618
H          -3.08511520366929   -0.17501700051558    0.40988337388825
H          -1.72804886817250   -1.23339839198460    0.30250894440344
H          -1.61525714853131    0.35564912367684   -0.27883554691904
