    26
        -50.47250292  Gyration_radius:  2.48713955785 Dipole_moment: 2.891
 S          -2.15681338102348   -0.06775425401149   -0.69691502166301
O          -1.95491013894664    1.35569475287650   -0.93857217522092
O          -1.78414108707228   -0.87276669336004   -1.84433313221055
O          -1.53567954934979   -0.50180680260144    0.53973517960272
O          -3.71559238170715   -0.27233013510819   -0.50161609632119
H          -4.03415893407480   -0.10524415821303   -1.38199300065264
O           2.06537279461292   -0.75455344192086    1.66040083106691
H           2.69131731587737   -1.26992124000068    2.16941443569754
O           2.14060298053955    0.78374947303210   -0.62341046691051
H           2.31013285948073    0.26940215395633    0.18637176556914
H           1.71753007316626    0.15788637148173   -1.24150038421202
O           0.77939496151790   -1.04329203492370   -2.13128001828094
H           0.95443653714749   -1.22737897117911   -3.05529739368278
H          -0.20649188945008   -0.95328665291088   -2.05289354016572
O           0.43509772725635   -2.29351529515134    0.33411661904479
H           1.46675697328638   -1.41132329300428    1.19910637971313
H          -0.38970706739569   -1.78065309766281    0.45209509566496
H           0.68116439906310   -2.14543966265284   -0.59064410493539
O          -0.10967582722746    0.72936882975157    2.47309070588486
H           0.71271628111627    0.21233923620777    2.39169434556226
H           0.05278237911664    1.79360802134596    1.29751082092826
H          -0.77939480933696    0.20832938875526    1.99270702590768
N           0.14783710052931    2.22949411204779    0.33075213417131
H           0.98915656159803    1.77176844383301   -0.12906818349752
H           0.24274932408351    3.23753155163122    0.37197480569363
H          -0.72048320275038    1.95009337772434   -0.21144660676969
