    26
        -50.46547046  Gyration_radius:  2.52319869743 Dipole_moment: 4.998
 S          -0.13730936003715    0.51459344610230   -0.70389351093659
O          -1.59043336069061    0.28841288320916   -0.54684493061260
O           0.52516409212831   -0.12876502788234    0.56294827999244
O           0.36764057419914   -0.26585668193116   -1.81731775462367
O           0.20005290141784    1.91489715314942   -0.73339142617576
O           1.58682715673467    3.21128229217090    1.12957737952468
H           1.10066879047755    2.83235741504954    0.36753064056702
H           2.51492783772544    3.18713249157880    0.89409352225735
O          -1.99801840938281    2.39954869565208    1.03560338493663
H          -1.53530009804656    3.08156817765394    0.54032806912715
H          -2.01998236083685    1.62835302608530    0.43909817204885
O           1.88700783188265   -2.39846652030935   -1.54807523599156
H           2.81341304386468   -2.15598720980246   -1.56534448600190
H           1.38586668147813   -1.56323026710567   -1.69420966026686
O           0.32367761931785   -2.87109144416879    0.55609146722163
H           1.04192014656404   -2.95277522961081   -0.10746256159557
H           0.44083093607674   -1.97707328037913    0.91697069794379
H          -0.82777310364124   -2.58612306872497   -0.44132991132144
O           0.04121674901303    1.44923446088532    2.45533282218025
H           0.68987906666735    2.15418440905981    2.25887067114686
H          -0.82271557481936    1.81870161923012    2.15549534623968
H           0.33562435859063    0.48441444049838    1.37890059224257
N          -1.46024692703320   -2.16198607716229   -1.20792004451837
H          -2.30693005805187   -2.69909649695851   -1.36607260470957
H          -0.89708650592614   -2.06995613810802   -2.05497815091371
H          -1.65892204767297   -1.13427306818459   -0.90400073776453
