    26
        -50.47001081  Gyration_radius:  2.46300116254 Dipole_moment: 2.608
 S          -2.14093440703174   -0.57138398145960    0.03177405510220
O          -1.95031488997105    0.85396066653961   -0.09831517390598
O          -2.30678914971480   -1.26826091593333   -1.21962439188728
O          -1.11029786185808   -1.16529169841666    0.89537431112901
O          -3.49526655117199   -0.79691731840688    0.84024888363863
H          -4.13555395350596   -0.80508058100899    0.13668678154649
O           1.49579457156546    1.51964945365397   -1.34730521965701
H           1.86308742375278    1.92999499422514   -2.13105309424596
O           0.94419133866732   -2.30422713001551   -0.28528546821958
H           0.14408280975897   -1.94622071010423    0.16838800743357
H           0.84847800099000   -3.25732391239759   -0.28736812567039
O           2.57667975543599   -0.21020117146190    0.49872894860707
H           2.20445955883412   -1.05093143584260    0.18470295192080
H           2.39291329212469    0.43709147100206   -0.20726137933327
O          -0.12581842839637    2.65258414603720    0.55474256944609
H          -0.94145190757892    2.19016513197662    0.27364928193339
H           0.29107638819257    1.52360384769004    1.54624738374989
H           0.50274659705716    2.48353211006632   -0.17038761223154
O           0.04744090782969   -0.49744536951204   -2.18030953278438
H           0.86522535074548    0.82376172894878   -1.67500085231421
H           0.51979221829091   -1.23838738350676   -1.77002104191767
H          -0.89030996817783   -0.65835024061024   -1.96506368104106
N           0.54283823585902    0.57749825656797    1.98795634327188
H           0.59002605901869    0.62181492225100    2.99886196729252
H           1.45934282854235    0.26282708347797    1.55364385569164
H          -0.19143819914882   -0.10646198387289    1.66599023276713
