    26
        -50.47001084  Gyration_radius:  2.46322658263 Dipole_moment: 2.612
 S          -1.92211104913796   -1.08698009345884    0.19530751346466
O          -1.73792107370226   -1.84854901225717    1.40576138700053
O          -2.06885011399738    0.33485462771152    0.39998578283327
O          -0.90743502305515   -1.37061713010931   -0.82974305138155
O          -3.27902734373516   -1.61577870824156   -0.45096976431403
H          -3.79281757921183   -1.81155944305044    0.32535742631313
O           1.25432053136560    1.79398297115491    1.25388080879754
H           1.61490316334395    2.25425748883286    2.01260817353642
O           1.50510150754782   -2.00394184074536    0.00173322435954
H           1.64515758072330   -2.94998958176920   -0.05260272104111
H           0.58717688273250   -1.84040396814976   -0.32187809183704
O           2.45613610213201    0.45952029138495   -0.83037012683008
H           2.34604179501824   -0.45871475808678   -0.53252789192560
H           2.22070394870403    1.01337620869813   -0.06293173986578
O          -0.84161754311635    2.55500069101832   -0.34508920009343
H          -0.09664913224166    2.52078314887217    0.28216341823123
H          -0.30437333284792    1.60537445602281   -1.45868328045707
H          -1.47385608363447    1.89300310319245    0.00163696821181
O           0.46864595548334   -0.55061276904367    2.11665373611683
H           0.86365707885994    0.95053718565147    1.60795600677838
H          -0.42259880961168   -0.93245792287894    2.00937649774359
H           1.04496241232988   -1.13428632361841    1.59928853417497
N           0.10598730036704    0.76976968267091   -1.99456036902605
H           1.12246143097782    0.67800591452735   -1.70136484162328
H           0.00062811511177    0.86307078886972   -2.99773789169777
H          -0.38862672110769   -0.08764500760248   -1.63325048868917
