    26
        -50.47001086  Gyration_radius:  2.46306526538 Dipole_moment: 2.614
 S           0.59235404636895    2.09812581651945   -0.39935300946396
O           0.47564205388850    1.81539849573941    1.01186071677895
O           1.92722546218982    1.96203234764853   -0.92744019580288
O          -0.41613996412013    1.35755941888265   -1.17097679291398
O           0.19274184165540    3.62586110973091   -0.61189465594273
H           1.03187288135865    4.05795725276064   -0.49271694770072
O           0.70253645094583   -1.86442647181208    1.54708356687485
H           1.30431511918920   -2.44181599010467    2.01827367573325
O          -1.10436973414004   -2.34388560622806   -0.47175429107982
H          -0.59473022972953   -2.02917796955728   -1.23671893124929
H          -0.46972074958046   -2.38155811652380    0.26776885210785
O           0.34670003995492   -0.88056523377559   -2.32098817152267
H           0.06690201777217   -0.00675420261164   -1.95743951195037
H           0.50387563149516   -0.74523705995303   -3.25616063702337
O           2.14215413294546   -0.59418918479691   -0.23461264776772
H           2.19666051631659    0.37340750224159   -0.34552955002450
H           1.27088621711321   -1.31055270281239    0.94753165561053
H           1.73021583247353   -0.90853597010633   -1.05434055159435
O          -0.85976161418664    0.14710886411538    2.56825963994963
H          -1.76193920703929    0.05569610977312    1.30030379688681
H          -0.30249185796706   -0.64161585976595    2.43837527152194
H          -0.32008572030487    0.88016720128972    2.20822121280874
N          -2.12054876092492   -0.02851195894627    0.29123425848830
H          -3.10657786048011    0.18927096940949    0.21079144825600
H          -1.89507697496673   -1.01156049492521   -0.04076065740039
H          -1.53263956016701    0.62580171402614   -0.28901757400785
