    26
        -50.47229270  Gyration_radius:  2.48027285532 Dipole_moment: 1.994
 S          -1.11945138405104    1.85884540192193    0.69743783558468
O          -0.39596695146825    0.85254351900694    1.46913660771931
O          -0.21680211458617    2.76010514740123    0.00802168047674
O          -2.12135316037166    1.25936669902202   -0.15983350027323
O          -1.90603833268427    2.75149474556052    1.74425474699346
H          -1.22156831120465    3.34329602024796    2.03760959404579
O           1.79568289041275   -2.03375095996733    0.30718232648390
H           2.59500551349109   -2.52348471210589    0.50150248663259
O           0.43678798789657   -1.30551278015355   -1.97333181390291
H           0.66780093825334   -0.35737492396560   -1.99147320501678
H           1.00334167942190   -1.69600918941975   -1.28358163065744
O           1.05427238562174    1.35364802780362   -1.75593873705894
H           1.17167731690946    1.89374437558867   -2.53908938345258
H           0.53254641843385    1.90731338960303   -1.12012980890145
O           2.12804252255337    0.52142121923863    0.69647905627007
H           2.08934534699398    0.90701943539322   -0.18948768836285
H           1.25551895874496    0.72699218034233    1.09274609902927
H           1.99834627970574   -1.07276272173145    0.49802426942308
O          -0.59379052793796   -1.82398255475279    1.67614667024797
H          -1.45328902899035   -1.66295402627828    0.34616241141666
H           0.28102458084701   -2.06925427400723    1.32457164634463
H          -0.53618683104743   -0.86279109979626    1.83990000586270
N          -1.80683279115831   -1.29772470410176   -0.58984812977601
H          -0.99326653473116   -1.35809858966930   -1.27140938997531
H          -2.02317933039672   -0.27146167358652   -0.44417082217736
H          -2.62166750293987   -1.80062796350884   -0.92088133822650
