    26
        -50.47229241  Gyration_radius:  2.48019310421 Dipole_moment: 1.994
 S           1.88778551806560   -1.05775374666047   -0.71554426155689
O           2.47251414137777   -1.08659879422679    0.61093301558650
O           0.50093786832206   -1.51393065575156   -0.70627438697169
O           2.03013211400540    0.21388238895808   -1.39429532140075
O           2.70390100524337   -2.11231369232128   -1.57189752435848
H           2.83600493411560   -2.80810664506046   -0.93673406063102
O          -2.60040608217372    0.06992446488644    0.82809194087141
H          -3.41550499820728   -0.12145928168848    1.29223730543293
O           1.20392139085113    0.66616094475479    2.03344975988799
H           1.83490160340213    1.08711115388214    2.61932555213566
H           1.72851022232716    0.03303798791904    1.47946351876804
O          -0.77060900411104    2.12672290650635    0.82102733219534
H          -0.04492137803329    1.68620466987490    1.30260691541391
H          -1.53691661300821    1.53136858944247    0.90785151891245
O          -1.78197214905641   -0.53172423563823   -1.73994435410491
H          -0.91417418466643    0.79545982655458   -1.87843341335513
H          -1.02142870285648   -1.08659532276563   -1.47964167090281
H          -2.26799380320089   -0.37130913516178   -0.91098900370094
O          -0.64234887041674   -1.41565845882742    1.69390999879231
H          -1.90887571126958   -0.54868644742892    1.20240391036265
H          -0.20399509690427   -1.59930066388601    0.83679932461073
H          -0.04985655860164   -0.79626467980395    2.14163861279102
N          -0.19239632458478    1.55475029091372   -1.68624045452664
H          -0.40241941313333    1.94184291941313   -0.71865419912989
H          -0.19001139908622    2.27796477374092   -2.39574012948201
H           0.74522152918997    1.06527085470447   -1.63534993424795
