    26
        -50.47229287  Gyration_radius:  2.4801158657 Dipole_moment: 1.994
 S           0.05135995784657    2.19562363749548   -0.60794160035836
O           0.60245507135016    1.53330579651083    0.57051412354511
O           0.84679129744716    1.93740400956498   -1.79245964962188
O          -1.35931051257382    1.91085994404642   -0.77254684375585
O           0.16299789209697    3.75431809822482   -0.34405403166471
H           1.06911933814068    3.92021463913771   -0.58140623712327
O           0.86708313208371   -2.16727790040665    1.41814141658787
H           1.43079953093980   -2.82915555567042    1.81895058273308
O          -0.46470020377636   -0.00505190767255    2.50387914929852
H           0.00678765904610    0.67755311319378    1.98827175334899
H           0.02320875786176   -0.83001336603460    2.32937280481372
O           0.63814549018320   -0.59501766976649   -2.29169062933837
H           0.60596565209590   -0.70869654341892   -3.24288726524427
H           0.67834853745786    0.38337825878499   -2.13686964963384
O           2.25027958177210   -0.47544483166305   -0.00141300967981
H           1.76917004507500    0.34541922448487    0.23354345416339
H           1.47019305324735   -1.55098708601537    0.91072718593254
H           1.98908416640732   -0.65672065507494   -0.91465592532469
O          -0.94568918397788   -2.11474903039942   -0.65265794499766
H          -0.41202758159065   -1.62843674271432   -1.30931816713309
H          -0.33114850380869   -2.32803690421453    0.07268217764157
H          -1.85854979731057   -0.99892251060206    0.02735993154719
N          -2.22548511745524   -0.15862821322365    0.56528047671422
H          -1.67493875371900   -0.11066863100917    1.47588469995934
H          -3.22586672402417   -0.20829641844078    0.71741354664526
H          -1.96407278481076    0.70802724488248    0.01587963094738
