    26
        -50.46272417  Gyration_radius:  2.48186876374 Dipole_moment: 6.101
 S           0.89917620983431    1.77811725596132   -1.22617811042838
O           0.48923701380039    2.20600505992677    0.08871511031451
O           2.29146908848591    1.43695506272827   -1.36831788908855
O          -0.00239110321429    0.71921374534156   -1.72062337611780
O           0.66259009455700    3.00876237291906   -2.21153199709171
H           1.44458909794658    2.95644436088166   -2.75106867184908
O           0.45631739748646   -0.95035568093887    2.11743018548269
H           0.96090081751431   -1.29657688324974    2.85475707280246
O          -1.30228643486181   -2.26426713027884    0.58382253384553
H          -0.65178683682943   -1.84629418675528    1.19594234174406
H          -1.53931359703423   -3.11108109795164    0.96300571203421
O           0.57761555260666   -1.93283710776933   -1.57159693960643
H          -0.14018256819381   -2.19341576755565   -0.97961938298378
H           0.38789035178256   -1.01489812373641   -1.83369147499828
O           2.17497320760448   -0.69350264988378    0.22272796479687
H           1.13681044906709   -0.76144588266445    1.39652893236989
H           1.81035392199781   -1.30327251566869   -0.45215115405745
H           2.33770886697715    0.13743792941139   -0.26224075652009
O          -1.06717030136391    1.32441570911382    2.00714099494778
H          -1.76763099130062    0.75010443608468    0.76575687057381
H          -0.52305748004566    0.56322725693077    2.27935019326011
H          -0.45781303806525    1.86921264165580    1.46621861147701
N          -2.02333667237360    0.27014399345367   -0.16882843667093
H          -2.01795967177599   -0.74879687033153   -0.01299773255208
H          -1.22430207630631    0.50635865253355   -0.84785654489649
H          -2.91240128829734    0.59034543984328   -0.53469404679374
