    26
        -50.46547015  Gyration_radius:  2.52236411437 Dipole_moment: 4.972
 S           0.75050752577602   -0.40311678725211   -0.23841860569994
O           0.34534763821537   -1.32186839155262   -1.28515530839236
O           1.69112538324896   -0.93499939120311    0.71436723938297
O           1.21106499604769    0.86978989299181   -0.83420412151249
O          -0.57781482113484   -0.05411359279641    0.51749241343369
O           1.28705724118258   -1.14509189352571    3.33444519806833
H           0.92218656827902   -2.01075111793262    3.52121214805457
H           1.53055511339399   -1.14910046568784    2.38504004034219
O          -2.15947439136011   -1.97222833011601   -1.76675922093785
H          -1.20729245079349   -1.81523564620781   -1.56968489255941
H          -2.40926675609446   -2.74466298679241   -1.25849953689184
O           2.41629189629554    1.75330391169486    1.37830227401216
H           2.92277373463144    0.97387211957053    1.62419798947577
H           2.06589146669023    1.55421245280485    0.49025377706391
O          -2.61740673712607    0.59181880961322   -1.21132737579435
H          -2.75989111513066   -0.35248847740902   -1.43752375918011
H          -2.12298425407706    0.55870200005426   -0.37625290130447
H          -1.44058879324329    0.84765921133732   -2.18668756687095
O           0.12426492581555    1.16888721754097    2.59532464322074
H           0.94869458688185    1.60182502102545    2.27005921152860
H          -0.33659366828999    0.46988089731212    1.38046586361058
H           0.43974230158921    0.41804414244830    3.13635502954831
N          -0.49809227718575    0.81014740676201   -2.71393530518733
H          -0.44545601980043    1.47301299012695   -3.48088285956987
H          -0.35768559263834   -0.15265935040737   -3.02468270884777
H           0.27704345882622    0.96516037759766   -1.96350166499810
