    26
        -50.47229321  Gyration_radius:  2.41208925143 Dipole_moment: 3.395
 S           1.19267026092461   -0.75357845695880   -1.02336392096222
O          -0.05142325356504   -0.30668221011030   -1.62875746207415
O           2.28272717056507    0.16915341728036   -1.28859881968049
O           1.05306112166476   -1.07591443896629    0.38045150340872
O           1.57476858603132   -2.12105488066062   -1.74011513074933
H           1.91216866080657   -1.82739804583850   -2.57997897856003
O          -2.02362938546957    0.90462046913745    1.30608657362198
H          -2.86139891073450    1.01466329816530    1.75710589587096
O          -0.44435813330757   -3.28037631654796    0.34496687889311
H           0.18286782177509   -2.54482196967375    0.47716517175760
H          -0.10494127095217   -3.77772589666710   -0.40095412986941
O          -0.94588387383581    2.13258274024673   -0.90710770525337
H          -1.48114829787465    1.85582635236730   -0.13976891549981
H          -0.73982296970901    1.30036331493604   -1.37462390832534
O          -2.14373059344512   -1.20972458205959   -0.21325692525205
H          -1.47231804030427   -0.91094691689978   -0.85522013162769
H          -1.78697552230039   -2.04665805106687    0.13381231625637
H          -2.09989809879602    0.05238081491740    0.78686389114363
O           0.55339855138089    0.80480622174909    2.22343277905791
H           1.18597001830638    1.73832612258007    1.12150048204430
H          -0.40987285024365    0.88025516965244    2.08490132730253
H           0.79552621349495   -0.03021341184833    1.78236525988107
N           1.42978365893018    2.18433050115598    0.17906929080391
H           1.99426646110694    3.02073492187866    0.27869777962099
H           0.49299263590660    2.37327502352190   -0.30026619754564
H           1.91520002963451    1.45377679971475   -0.40440693427046
