    26
        -50.47229292  Gyration_radius:  2.41200476989 Dipole_moment: 3.378
 S           0.14406983754470    1.24201126718266    1.21447247664289
O           0.93710748741667    1.37154128853134    0.00267878592663
O          -1.02266383445473    2.10686008205512    1.18945466431844
O          -0.17697677570850   -0.13213926276024    1.53488950727067
O           1.06173757274089    1.75544232805459    2.40770795075950
H           1.03604138347794    2.70012530314147    2.29629355619523
O           0.17681214998793   -1.79776762758309   -1.83025524375421
H           0.45378269140689   -2.51811792795444   -2.39749139839220
O          -0.32041400270436    0.86210977317334   -2.32753064336966
H          -0.13565668670750   -0.09480776695685   -2.37218790899285
H           0.26908049354302    1.19274153157311   -1.62265811842263
O           2.18164780107817   -1.16043787148307    2.22962551969544
H           2.59717823657912   -0.46393721722101    2.74084447073649
H           1.25938477297136   -0.87227521937424    2.09429258834975
O           2.23709606096042   -0.92161799930478   -0.49577113050328
H           2.37604506414802   -1.25817876713398    0.40731374915647
H           0.98458365721932   -1.53884681546678   -1.29902783508131
H           1.89610470144704   -0.01679117034648   -0.36473342739039
O          -1.83257358564215   -1.59411393637645    0.01674361550260
H          -1.19443949810487   -1.84452729707859   -0.67823132826375
H          -1.27603708579986   -1.27298013720827    0.74993713357330
H          -2.34347544988165   -0.16564780400754   -0.41225033668338
N          -2.36802683029000    0.86413090854547   -0.70473959185828
H          -1.97255137212618    1.43172943490262    0.08971103561924
H          -3.29902521360472    1.17417724550005   -0.96023800530135
H          -1.66883156549227    0.95131765758836   -1.50885008573544
