    26
        -50.47229330  Gyration_radius:  2.41206073001 Dipole_moment: 3.397
 S          -1.72824423663565   -0.01188888815316    0.22301232663614
O          -1.13374426971553   -1.04895559356745   -0.60472951729908
O          -2.06067829367021   -0.50489401305531    1.54835269408478
O          -0.94544254552646    1.20483782217179    0.25168350244677
O          -3.10478039990856    0.38157304152884   -0.46994425363044
H          -3.67226343526931   -0.34330044793438   -0.22918070937866
O           2.47369318660962   -0.07440639532658   -0.70339276593870
H           3.30559561177357   -0.00923038504088   -1.17352453034792
O          -1.22138791591567    2.15485462188748   -2.22321692099061
H          -1.13045270911872    1.96016773213139   -1.27156887962385
H          -2.14055504668081    1.98334924334843   -2.43486708622182
O           1.10371133291243   -2.22068433958262    0.33887370789295
H           1.75163437852244   -1.60827920102759   -0.05733335025900
H           0.26241801381248   -2.01138062981486   -0.11068870221046
O           1.46103630926528    1.31508006246491    1.42623020451053
H           1.98539065928659    0.92554920960005    0.70085234021417
H           0.61321946541799    1.55453920993542    1.00871273627678
H           0.88897163861963    0.07343401162852    2.21157164484863
O           0.51306000049577    0.04739303122111   -2.41653293871311
H           1.75744448656369    0.03779219379152   -1.39334114353362
H          -0.12657442892993   -0.45094217011632   -1.87365817660888
H           0.08260460700639    0.90839834814049   -2.56320005898146
N           0.39356775221771   -0.84679817179678    2.44461094813936
H           0.55348996447096   -1.14360403035981    3.40089867689106
H           0.75051252261718   -1.55493414581397    1.72750582642559
H          -0.63222663821714   -0.71767011625133    2.24287444536992
