    26
        -50.46516757  Gyration_radius:  2.53869088009 Dipole_moment: 5.800
 S          -0.59353054279904    0.14568927988433    0.11081238786833
O          -1.78608936211533    0.35801942605680   -0.66810572737002
O          -0.77132193722073    0.43169866364652    1.54367575877019
O          -0.02060405285477   -1.18489202778692   -0.07156056652071
O           0.50088608497761    1.17390558431528   -0.31910041369887
O          -0.51320799708087   -1.78219387052798    3.07027750181242
H          -0.73180108494764   -0.97087184794042    2.57011858086650
H          -1.18886612283801   -2.42231004985684    2.84171456665053
O          -0.55925809066243   -1.30495491526704   -2.67542939137820
H          -1.49062212891951   -1.06709260973571   -2.66916640799900
H          -0.32374806748971   -1.42876314614787   -1.73608067868480
O          -1.96813566977311    2.10026636640387   -2.66798764372220
H          -2.02464105054389    1.45409599446379   -1.93311959000211
H          -2.28565742052002    2.93266890762485   -2.31612372764313
O           1.79515662690799   -1.86426715597623    1.69723186708776
H           1.94409280187648   -0.40195391346496    1.95698321230284
H           1.13726648043424   -2.10191897234601    2.38229509528644
H           1.23900461674219   -1.77886674121070    0.88786852231304
O           0.53333376466397    1.11472035377125   -2.83316738312212
H          -0.28178580585517    1.62266651274092   -3.01770919414664
H           0.56631687775885    1.17216158982515   -1.35191636395526
H           0.27615275774239    0.17385742166083   -2.97783208104843
N           1.73228338893150    0.67493564579395    2.04967617022767
H           2.10011458164265    1.17982207233527    1.24489938790579
H           2.05596001619817    1.06887095587835    2.92729394738022
H           0.65870133573674    0.70470647586708    1.95445217082688
