    26
        -50.47399125  Gyration_radius:  2.38945721118 Dipole_moment: 4.400
 S          -1.39189551618821   -0.29252863543852    0.19652129607751
O          -2.38121527178276   -0.62261250007870    1.34037057307422
O          -0.15441592746167   -1.04545036492217    0.45504137905873
O          -1.99134203969752   -0.64098532667943   -1.06051394535657
O          -1.10227858164260    1.15346309089101    0.27848298986213
O           2.12151532855182    0.39170840882087    0.39860056667210
H           1.43355111796739   -0.30117786260383    0.44280793901092
H           1.93553984695901    0.96517175758482    1.15486745287648
O           0.58529013724700   -2.58990756012349   -1.61156754918340
H          -0.04549687442506   -3.30923497613244   -1.67273823871586
H           0.34289084258108   -2.08737005289669   -0.80848283918103
O           0.48619661567428    1.77235142973765    2.24236425997114
H           0.21452527904117    2.60008148591042    2.64138946347573
H          -0.15105299001142    1.59398182369825    1.50441533564121
O          -0.23429789470317   -0.49676029970478   -3.05447697538338
H           0.43983331983607    0.65999846656570   -2.30809353321509
H           0.23870988438605   -1.31041869584176   -2.77685177944261
H          -1.06017073872629   -0.53540152759395   -2.52890248198166
O          -0.46077811972527   -0.65264578554641    3.09265880936429
H          -0.02098450567075   -1.14630828642985    2.38569496602247
H          -0.05670591367145    0.23392970013368    3.06771611588598
H          -1.81053310000284   -0.62895732903191    2.15147953910921
N           0.72011709536703    1.41867256467564   -1.58909788503431
H          -0.10299415131599    1.49980684225698   -0.93680683980905
H           0.94490976131879    2.30032316801000   -2.03674111057531
H           1.50108238609375    1.07027043473493   -0.96813751821975
