    26
        -50.46983304  Gyration_radius:  2.4323171502 Dipole_moment: 4.331
 S          -0.40405247624660    1.78738969310492    0.93521388702876
O          -1.42907232837554    2.02855747933867   -0.05774699121665
O          -0.68097283539565    0.70996082961975    1.85061925316511
O           0.91717474712479    1.63418513822400    0.30428875089179
O          -0.31472349052942    3.11173781410309    1.79947765884304
H          -0.52829752210462    3.78127879536461    1.15818610245587
O          -1.02880149329973   -1.62646605751568   -0.82201615802089
H          -1.87763349304562   -1.29619637477096   -0.46156942136225
O           1.73683598900191   -1.51993602438242   -2.05166515626231
H           1.03453168131912   -2.16747751464347   -1.92700043521534
H           1.29083701886093   -0.71659231686568   -2.36200961504756
O          -2.92974346996638   -0.15209208476231    0.38617749082665
H          -2.51846994877573    0.69920383939302    0.14606639341194
H          -2.73705046294687   -0.25191666305695    1.32241756877420
O           0.03968295496168    0.65833847661148   -1.98169199253236
H          -0.66545259439221   -0.85419565658392   -1.29055767115087
H          -0.76143307943640    1.15107625406009   -2.17930074834343
H           0.40454021579975    1.10057343633774   -1.18559701446596
O           0.16485803385558   -1.80481318519149    1.56142026699588
H           1.47205391961170   -1.25328363816657    1.00908702222943
H          -0.20593706715686   -0.96325097021559    1.89328809900332
H          -0.32085283272240   -1.95840489174932    0.71725419448422
N           2.20128936408388   -0.67232382220642    0.45394009595308
H           3.12585276517293   -0.70345836066397    0.86707427390073
H           1.81519192040744    0.30680931506923    0.44966345203687
H           2.19964450418252   -1.02870349046406   -0.53501930638197
