    26
        -50.46272401  Gyration_radius:  2.48163643892 Dipole_moment: 6.094
 S          -0.40517279636256    2.29364792204747    0.21374017308737
O          -0.13905021897124    1.68716328042111    1.49500109055519
O           0.72326411998269    2.91375422969654   -0.43207915672989
O          -1.11375168809989    1.34068172607267   -0.66270159998262
O          -1.44919907262589    3.47228347887932    0.46388227518692
H          -1.09367270236417    4.14763085052566   -0.10414551910339
O           1.75086729005683   -1.44214188836270    0.66881756707118
H           2.64234151182852   -1.76144768680554    0.81522350514403
O           0.13273179554855   -0.17025263353064   -2.54879924278119
H          -0.05689411412587   -1.03871753493690   -2.17007771657646
H          -0.40283809711088    0.46491316003423   -2.04190717898883
O          -0.13260244829155   -2.51682010067262   -0.90255561669732
H           0.10539957805757   -3.39934632140868   -1.18804297330494
H           0.60604118686109   -2.18744104695967   -0.33828305163257
O           2.04526463048661    0.63573811393565   -0.81665615227260
H           1.55350648502227    0.36859058156754   -1.62101542851708
H           1.69633022609441    1.52088193916036   -0.60031249590721
H           1.85968031021966   -0.57641215907326    0.16191274162149
O          -0.13171391088805   -0.72466343656320    2.52580000221604
H          -1.20615644922060   -0.86901347164101    1.43664269813100
H           0.65159188055094   -1.06496798803780    2.05655500828227
H          -0.07590017405325    0.24640318904930    2.40477731389344
N          -1.78461593058248   -0.85861742282844    0.52316480573259
H          -1.42732084928566   -1.60931163977974   -0.08614394472659
H          -1.56979102953032    0.08282346917766    0.05089790958939
H          -2.77833953319656   -0.95535860996744    0.69630499670946
