    26
        -50.46983303  Gyration_radius:  2.43235672842 Dipole_moment: 4.333
 S          -0.25664947800531    1.74745339987494    1.05512784304443
O          -0.95805745940461    0.68776906911097    1.73372018467965
O           1.17365448053696    1.77660869867914    1.27471031074218
O          -0.57077604779240    1.76922546433277   -0.38292709650936
O          -0.81422643711372    3.11151943267975    1.63601273298257
H          -0.08949564235961    3.70652340095766    1.47468722663229
O           1.04627575074505   -1.80472792140434    0.15601002736935
H           1.31427805339720   -1.59230650167528    1.07396096841746
O           0.37675321921583   -1.33458025469000   -2.75980968189095
H           0.61165226370971   -2.07575618874204   -2.19096701967589
H           0.99652751588554   -0.62653714078929   -2.52492248728997
O           1.42864400736396   -0.58473822573772    2.52495284824735
H           0.56010142176348   -0.60588304525161    2.93591018054342
H           1.48686075489224    0.30670304736870    2.13323678825894
O           1.62868375574152    0.55641517567400   -1.18288216111676
H           1.30231426440390   -1.01003209673564   -0.34487752354313
H           0.84109648998539    1.08910008088267   -0.94119065925333
H           2.33095644613229    0.90875668435378   -0.62943188215469
O          -1.57432668109401   -1.67582084092015    0.65817972110394
H          -0.63751002337081   -1.94514429905099    0.50981176631856
H          -1.50154682950407   -0.88644858763671    1.23040114519266
H          -1.84640822993988   -0.95768218707030   -0.65634793900219
N          -1.76628322796308   -0.29954270600004   -1.51541199275085
H          -1.40046660660797    0.60635872816263   -1.12391457637843
H          -2.64999282067369   -0.16601126888630   -1.99257836562353
H          -1.03205894986549   -0.70122191757435   -2.15146032836057
