    26
        -50.47001089  Gyration_radius:  2.46320340341 Dipole_moment: 2.615
 S           1.05968811431716    1.62985167893619   -1.06476205479951
O          -0.13610468769919    2.09112095270616   -0.39975655392025
O           2.26857029486846    1.78299654375321   -0.29371616333692
O           0.87763831537457    0.27139311098520   -1.59592299638203
O           1.25561991232652    2.52808052904619   -2.36603462038229
H           1.76893263445337    3.25024619123589   -2.01976305397089
O          -1.07631729761494   -0.35195086400940    2.25386227923869
H          -1.16462932652612   -0.31281384224139    3.20685528257147
O           1.81327080334343   -1.72245502186920   -0.15997565760565
H           1.52401784043057   -0.98004446100423   -0.74243669840738
H           2.64328362835476   -2.03835510496122   -0.51890176223608
O          -0.76562426347229   -2.46508978487448    0.51952313067473
H          -0.93596452626281   -1.86449525487540    1.26878134441992
H           0.19111181222190   -2.41491485344452    0.35772625971542
O           1.40960938006223    0.27244745010208    1.71592114415836
H           1.71554813992922   -0.54948174820012    1.30213873305527
H           1.70563531307687    0.97522404444371    1.10750332160826
H          -0.16354303049687   -0.01261940088474    2.05117074605762
O          -2.45770483635844    1.08700306284297    0.36970625955022
H          -1.71277192061590    1.67576167904820    0.13178151668912
H          -2.07779135644253    0.01194451797283   -0.69349073666211
H          -2.15475633747119    0.63925874414739    1.18047016763933
N          -1.55294201995349   -0.71049328859666   -1.29050231854539
H          -2.06882790480672   -0.97547389035190   -2.12102684133492
H          -1.34129649630758   -1.54098551959613   -0.66348835930471
H          -0.62465217472448   -0.27615548032308   -1.53566237848631
