    26
        -50.47399128  Gyration_radius:  2.38943583824 Dipole_moment: 4.400
 S          -1.36132910640875   -0.02340606715010    0.45681256656595
O          -0.23914432500250   -0.96809893111766    0.57302899415467
O          -2.23101008199280   -0.34004306404866   -0.64062128019759
O          -2.16393217094872   -0.09457143047865    1.77853786604132
O          -0.82665126985901    1.34912046510770    0.34847679463328
O           2.19373359146669    0.02915102886432   -0.00635066167357
H           2.24709622379896    0.67490131615628    0.71166045083079
H           1.42067487799332   -0.52431216501068    0.22029558545667
O          -0.15618567220435   -2.75268420575997   -1.42984665954695
H          -0.16086225067919   -2.16316320867560   -0.64968763115517
H          -0.89690078107414   -3.35000622642376   -1.31315368196424
O           1.17572055974926    1.79873585965333    1.94598656321106
H           0.39314965919309    1.69037531602204    1.34743288248661
H           1.12365877097631    2.68651851964636    2.30277240175247
O          -0.87060851781643   -0.64555923871826   -2.90779312888761
H           0.11095183359852    0.41730815002542   -2.40187446513539
H          -0.49572815812179   -1.51107251573778   -2.63715292024107
H          -1.58065178907669   -0.50052776889730   -2.24856574251585
O           0.01400020162966   -0.35582536891490    3.17413673914092
H          -1.46261277124537   -0.15103821040466    2.47760116293640
H           0.22845041564113   -0.96542029569966    2.45352876755409
H           0.54721921582534    0.44024856762190    2.99571996597775
N           0.64016570671746    1.15873580517653   -1.81754561736605
H           0.92138842702786    1.95426872564264   -2.37993398666882
H           1.45348307625770    0.71710494643514   -1.30737229415660
H          -0.02407565541277    1.42926000672574   -1.04609266118889
