    26
        -50.46272410  Gyration_radius:  2.48202239828 Dipole_moment: 6.101
 S           0.90531571539422    2.11087161371507    0.44629461131229
O           1.33727303166059    2.58375696635610   -0.84404159544986
O          -0.52015752030751    2.09981552228426    0.66522107168401
O           1.48415211163336    0.79910609133591    0.79715706847736
O           1.53130510434234    3.12866067321344    1.50131591915131
H           2.18780474988796    3.55910670759401    0.96368896133367
O          -1.74058668124063   -0.79476826127406   -1.38792431437106
H          -2.29159141188985   -0.89862732840166   -2.16490538881971
O           2.04693010287815   -1.12862936753329   -1.03591626493074
H           2.05564936784485   -0.43101643835659   -0.35728926449897
H           1.42694311046719   -1.79873218372407   -0.71946803522055
O          -0.23918022143117   -2.65952685593290   -0.18772547296905
H          -0.44223303727225   -3.53878083966023   -0.50821174154798
H          -0.82202126515160   -2.03243457957320   -0.67706613079001
O          -2.40190207019892    0.30854574231670    1.03120516562194
H          -1.18611241277496   -0.40426802600192    1.64488115270258
H          -1.91428521680583    1.15302629353566    0.93355316199601
H          -2.40029332158213   -0.06901297673049    0.13281511297761
O           0.28725328810242    0.55505619202477   -2.20917655902000
H           1.01946944730368   -0.07256972192917   -2.03570191433653
H          -0.98551459028771   -0.19090828526221   -1.67757216717128
H           0.58521228452839    1.39362457674169   -1.80878779338633
N          -0.21776166019068   -0.83548475151636    1.85751317361102
H          -0.07957296879243   -1.00067609978874    2.84767470246941
H           0.50451680321813   -0.13246073150389    1.48375150559183
H          -0.13061269933595   -1.70367393192866    1.30871504558293
