    26
        -50.46983305  Gyration_radius:  2.43241177352 Dipole_moment: 4.340
 S          -1.61738972182929   -0.86706183698950    0.93038064767593
O          -2.19265339073745   -1.10064125187315   -0.37700673798998
O          -0.31478958000669   -1.54044035573486    1.06205238522541
O          -1.54013048798291    0.51586087622402    1.32649903966211
O          -2.57770854559562   -1.58686776098802    1.96409971059825
H          -2.89097586502789   -2.32963762155860    1.45872776715243
O           0.40024833028525    1.35047618570763   -1.54725023307652
H          -0.54987596679494    1.57666341041904   -1.62199688545759
O           2.85841723748757   -0.36582618327897   -1.11112537895467
H           2.64365354765395    0.48682352962577   -1.50475524788269
H           2.17763504555769   -0.97543526847807   -1.43609497975112
O          -2.27188741481795    1.44233703193379   -1.23259039263719
H          -2.35107891675427    0.48838615818178   -1.04498396007449
H          -2.38697372918318    1.86206835127655   -0.37570151306061
O           0.59865777284632    2.08164421033027    1.01448530115256
H           0.60093031861863    2.02215537681151    0.03029577006985
H          -0.26291974138184    1.69580872661909    1.26880724226374
H           1.47289656568637    0.88033229681599    1.34645508771460
O           0.33582699440179   -1.42434719841574   -1.48946000011814
H          -0.47909541115146   -1.59551701084273   -1.96930242745923
H           0.40608316598036    0.37781151356690   -1.59004282990857
H           0.09713756988911   -1.57037758075612   -0.54912159859795
N           1.89217621008355   -0.11991180083295    1.38248631551069
H           1.05632338315657   -0.75949107647429    1.37823883729991
H           2.47193610333722   -0.27438292020885    2.19886692702715
H           2.42355654624542   -0.27042983108926    0.48803715363307
