    26
        -50.47399123  Gyration_radius:  2.38940194837 Dipole_moment: 4.402
 S           1.32548832751065   -0.54907658686570   -0.05971968008741
O           1.25720303918299    0.66987002931606    0.77150957987744
O          -0.01889465607482   -1.13900679804306   -0.15837780312468
O           1.89994037312089   -0.27913249397405   -1.34741695687503
O           2.22063598169058   -1.56259232151378    0.69377328981927
O          -2.04765331709063    0.43059160887206    0.66032511659748
H          -1.47487657559017   -0.27604391414567    0.30285653428879
H          -1.79727832860541    0.49583791069009    1.59224462637620
O          -0.92748164848448   -1.26617516254045   -2.68045115605549
H          -0.63380908160146   -1.29258095709252   -1.74808885778472
H          -0.41155272435106   -1.93211203061270   -3.13811857244335
O          -0.27297461790397    0.40449769332706    2.85749919114168
H           0.35002611243407    0.54403236304749    2.09927904200064
H           0.11017702655233    0.85680936856073    3.61036048411413
O           0.24063146578784    1.12758108323920   -2.88076842032588
H          -0.27033021764531    1.81456381086518   -1.60921766031018
H           1.03612819547770    0.70388647497638   -2.49672687156206
H          -0.35811165884604    0.36595516876425   -3.03661610233597
O           0.26974115372185   -2.21762936103683    2.28264337483267
H           0.00642716280628   -1.39859046103259    2.74064469901083
H          -0.22010600036636   -2.20418823917014    1.44792639380297
H           1.63310039893152   -1.90544392226201    1.41548132079835
N          -0.45164622469630    2.12293178302260   -0.58791455021196
H          -0.52728711970431    3.13061528944654   -0.50410732988027
H           0.35591081044280    1.73494223190636   -0.03391642948136
H          -1.29340790669824    1.62045741224349   -0.19310323217133
