    26
        -50.47001085  Gyration_radius:  2.46329212697 Dipole_moment: 2.616
 S           2.00239595609607   -0.71382820250965   -0.62843981816218
O           1.70407071862933   -1.95620336221395   -1.29692799517864
O           1.58650073357071    0.46702901235247   -1.34784773496018
O           1.53318125695020   -0.67618010653001    0.76408537406816
O           3.58955347402134   -0.65737901276345   -0.50080934893619
H           3.85759447150644   -1.09279782466041   -1.30298130106588
O          -2.11933299611161    0.79781319935732   -1.11131482891425
H          -2.83885405647790    0.79987700482757   -1.74362435070854
O          -2.05731315404060    0.35795356741667    1.60399609093170
H          -2.28453718173223    0.53964735318542    0.67316389469517
H          -1.74678132898840   -0.56254947646405    1.62146791284255
O          -0.65576707146252   -2.01447242677893    1.33894216100209
H           0.20547611685792   -1.57001843464204    1.15231817054284
H          -0.44311172497529   -2.84241032092628    1.77119953525948
O          -0.00554318116628    2.54030076717791   -0.95164166389419
H          -0.85564078066580    2.10203683338723   -1.13818989552426
H           0.20050271986880    2.11464170624400    0.53398212323230
H           0.66435703835098    1.91175031532654   -1.28975401468075
O          -0.91431723763613   -1.51302954042646   -1.37106312238687
H          -1.05985934037524   -1.89137226808299   -0.49014565078167
H          -1.60440461700060   -0.03460989264875   -1.28808263636774
H           0.03708378471383   -1.64819911225591   -1.53919563975803
N           0.29289706039472    1.55194580455723    1.44425046305374
H           0.90178427797295    0.72149802291816    1.22047578501718
H          -0.66979309733447    1.16709784179830    1.67397889752338
H           0.67985815904771    2.10145854231367    2.20215761314114
