    26
        -50.47000839  Gyration_radius:  2.46299874102 Dipole_moment: 2.580
 S           0.05207502012447   -0.46661689455420    2.16668258809304
O           0.40561199991435    0.90661932456669    1.89204224198174
O          -1.34006625669215   -0.67084408489737    2.48116819557993
O           0.54701904110598   -1.36263270813787    1.11229366807453
O           0.86714409261039   -0.91331238090690    3.46041427188637
H           0.30535336498089   -0.59289823926463    4.15803358329126
O          -0.88495342376253    1.83646040953381   -1.48482234164748
H          -1.51018993864280    2.48271742896681   -1.81489317360485
O          -1.16313329330703   -2.09250798916460   -0.74729635359344
H          -1.49109344846472   -2.97657897595598   -0.57862402496232
H          -0.53310538537149   -1.88658052096072   -0.01612825759660
O           0.12525169284024   -0.47277028726066   -2.58729380502522
H          -0.29002705433267    0.38791745195805   -2.39243167404053
H          -0.42003942603172   -1.13466210994727   -2.13078503877069
O          -2.21226211240362    0.29893160651920    0.16750813761074
H          -1.97053389200866    0.10849015742741    1.09332796926232
H          -1.36817248474465    1.32489612257731   -0.78169523148509
H          -2.13401394795967   -0.55659796013411   -0.28254152359668
O           1.44582648308153    2.28627242575640   -0.10882307281238
H           0.64670251962613    2.35969717491231   -0.66160589955071
H           1.10727749684335    1.98218654439054    0.75801343783981
H           1.93874820288674    0.86824407695201   -0.52799256457393
N           1.99816829828456   -0.18144667036978   -0.74833224179707
H           1.38889680566883   -0.35799099309388   -1.59996490211764
H           1.53809389653312   -0.68078744544345    0.05753313947330
H           2.95142175921565   -0.49620548344848   -0.88378712796331
