    26
        -50.46272425  Gyration_radius:  2.48175723416 Dipole_moment: 6.099
 S           0.51071623861149    2.25307831340236   -0.36779372587739
O          -0.02653376442877    2.04954532887797    0.95503704793277
O           1.94785854130573    2.27444280743986   -0.46382523380887
O          -0.11186600655189    1.31278470630625   -1.32019050219589
O           0.03310497752371    3.69623436438139   -0.84770243841858
H           0.82186819280993    4.01016001792773   -1.27747731031683
O           0.59212609398137   -1.58354809160347    1.65353911886975
H           1.13759049826876   -2.07967375714489    2.26543885653082
O          -0.77167106341177   -2.52266274464086   -0.45115665010024
H          -0.25369696782534   -2.25423254324684    0.34390684547939
H          -0.81780373208000   -3.47911409536245   -0.44531365838608
O           1.05053356717997   -1.01946087107676   -2.09571795535393
H           0.66599762917624   -0.12856635597702   -2.01978678284044
H           0.39207492687614   -1.62447018968343   -1.72958810758270
O           2.26817631370966   -0.28216090188707    0.20219173108865
H           2.25324892749784    0.68603179815175    0.08138190696851
H           1.23512321268018   -1.00106887142326    1.13793267935177
H           2.07286201263778   -0.64269110078147   -0.68779583093712
O          -1.40379973715774    0.20717574189578    2.21586485288185
H          -1.91570562609933    0.03084062451722    0.77766218244436
H          -0.70996435634306   -0.47632623141285    2.24823786170709
H          -0.91698378612586    1.02730451808231    1.98987022441430
N          -2.02597244330043   -0.09093778921048   -0.29105836548117
H          -1.79437988997975   -1.06799526873958   -0.52367874461480
H          -1.28036917893825    0.54226100131054   -0.73672254812572
H          -2.95253457001717    0.16304958989799   -0.61325546362999
