    26
        -50.47399115  Gyration_radius:  2.38943198431 Dipole_moment: 4.397
 S          -1.29968572519258   -0.00582063154386    0.61120400487637
O          -1.96044190944148   -0.28974542617649    1.98197683611890
O          -0.28098962467680   -1.04458172002511    0.39096524034184
O          -2.31008761688513   -0.00633859593538   -0.40856989213807
O          -0.63330233473373    1.30817060725241    0.71581021427448
O           2.17041833820680   -0.15496715413976   -0.27805168809950
H           1.37017710812018   -0.67695777137243   -0.07186377530147
H           2.36974732165880    0.31582744596273    0.54293861159566
O          -0.60435080546291   -2.36068336745096   -1.92562433208344
H          -0.46244785415288   -1.95304811541263   -1.04815665650725
H          -1.38821922301774   -2.90583846852830   -1.83930525122564
O           1.56414947870005    1.23635115762148    2.10484146781925
H           0.71543031204106    1.32443463486773    1.60048024266261
H           1.64571854844796    2.02764063493919    2.63908402256173
O          -1.23935734075300    0.06588177793505   -2.84414402599429
H          -1.85534536911457    0.12598660837676   -2.08474020108898
H          -0.10004539481396    0.91001059474750   -2.26221932741247
H          -0.93395260119448   -0.86576294318304   -2.80383640625205
O           0.31197467958454   -1.02525635973328    3.00859847633567
H           0.38073222577141   -1.48218890827922    2.15804838026951
H           0.90675603182269   -0.25728477603792    2.92902280549766
H          -1.19938180069750   -0.55286140793396    2.56099169957288
N           0.56576230434225    1.46230577151086   -1.61193326288621
H           0.02055201543549    1.61684206888008   -0.72400516945032
H           0.87056789013796    2.33304699909540   -2.03281198846160
H           1.37562136588241    0.85483731457168   -1.30870001500883
