    26
        -50.47399128  Gyration_radius:  2.38938660551 Dipole_moment: 4.404
 S          -1.35203082263337   -0.43245404347041    0.21532113417923
O          -2.31588858418499   -0.76539541893533    1.37988271446364
O          -0.04051727104531   -1.00809771811086    0.55239725224999
O          -1.88597848449962   -0.96636274359980   -1.00568899372968
O          -1.23276729889173    1.03864489217308    0.15924185669261
O           2.05548704330341    0.67214337217410    0.37188318278686
H           1.45149366111988   -0.08891325833033    0.47838385977711
H           1.79126899096570    1.28932890354094    1.06809865421947
O           0.90627358206240   -2.64645192406855   -1.35076419213061
H           0.36207595938998   -3.43570384005724   -1.34603659775463
H           0.59464586903456   -2.10090068573793   -0.60139827732922
O           0.24026273128618    2.02195888659609    2.06334401300551
H          -0.35956783529159    1.70119806553086    1.34235286724486
H          -0.13143677821542    2.84699728664542    2.37853922766663
O          -0.12313723450149   -0.80859054219717   -2.99320728072725
H           0.43541753744986   -1.53201289970313   -2.63603116491050
H          -0.94786904685096   -0.89277509679398   -2.47111958582301
H           0.40060041299611    0.48429996960517   -2.35794573998584
O          -0.43490894038375   -0.40486355530123    3.13827163740485
H          -0.13584855363072    0.51643223934923    3.03018595711535
H          -1.76196906481863   -0.62810726508956    2.19102026232131
H           0.07105390690252   -0.90898364880489    2.48502443052487
N           0.57921966727634    1.33537888539520   -1.71380925675662
H           1.38437305573422    1.14082596078059   -1.05742522078042
H          -0.25891113224255    1.38182893855404   -1.07747888043171
H           0.70865861966809    2.19057524984918   -2.24304185929442
