    26
        -50.46133385  Gyration_radius:  2.45427385609 Dipole_moment: 4.898
 S          -0.07385880709474    1.26179550208989   -1.70417488571706
O           0.99648359267781    1.68338955377961   -0.82396130641130
O           0.39628470796965    0.28877593878527   -2.69086496043149
O          -1.24241547911811    0.79207747241901   -0.99050261098399
O          -0.52875287258102    2.53748443366497   -2.52020001334331
H           0.28520296948414    2.84281736718186   -2.90848642254754
O          -0.74735396792723   -1.38280325041794    1.89727550486157
H          -0.49181094014269   -1.60374242571983    2.79375394212862
O           1.40624228372758    1.45086580596028    2.52405006281507
H           0.44961080341628    1.53773322776166    2.30618059530555
H           1.82852158555469    2.17629721761629    2.06012364152844
O          -1.15329568896739    1.40832232023513    1.65534181792807
H          -1.17702366356704    1.38798365751844    0.68264537617003
H          -1.38157169206463    0.50732197089093    1.92164215330549
O          -1.92027235276994   -1.75312537011718   -0.53854021406086
H          -0.49697746735575   -2.03646676908882   -1.07346223576502
H          -1.79649457160556   -1.76578058306018    0.42429312065714
H          -1.92134876867527   -0.80278531498814   -0.77499444123873
O           1.46554558186987   -0.42772268407251    0.66279360790091
H           1.69932761233585    0.05632016097871    1.48688083307485
H           0.06202648748770   -1.04029809759712    1.45321434635369
H           1.30943430569496    0.32606391225865    0.04685803429420
N           0.52764081044997   -1.93355203488854   -1.39742739844244
H           1.10262041570475   -1.67888409103902   -0.58112566851385
H           0.52229784622381   -1.07298986891084   -2.04242821777352
H           0.87993726926619   -2.75909804124171   -1.86888465109090
