    26
        -50.46133361  Gyration_radius:  2.45475132742 Dipole_moment: 4.886
 S           1.17506476069462   -1.13520013096142    1.35604684599124
O           0.15955416739112   -2.12361871203766    1.72055852371443
O           1.64749966296577   -1.33574031611095    0.00144725138680
O           0.73094836418724    0.21967166287464    1.60613097263953
O           2.40637395351678   -1.38847045470701    2.31510570380099
H           2.70138237018994   -2.25635835922713    2.05773432306420
O          -1.29483970150211    1.87123168326597   -0.94197233477500
H          -1.47008938562237    2.29722978241702   -1.78192115376175
O           1.47692477825790    1.93049045965752   -0.36974859283975
H           0.58821698931079    2.30307731701128   -0.44816627339240
H           1.40832926702286    1.28898334137025    0.35891918300262
O           1.58212435677347    0.64683053333011   -2.74627776279356
H           2.29210642327758    0.00647879972978   -2.67023719895653
H           1.65072524769120    1.19517718201474   -1.93086548766481
O          -0.38016014818648   -0.61571222817027   -1.49971957818518
H          -0.96661593551328    0.96677450459456   -1.15159154559784
H           0.14535526485755   -0.24009441029620   -2.24184453974648
H           0.34125792360516   -0.93853446213577   -0.91015846950420
O          -1.79584866646660    1.08978342214119    1.62404074599603
H          -1.75973134513593    1.65260638668033    0.83384198297677
H          -2.09079095818636   -0.31060750257155    1.03738897811238
H          -0.85838257312355    0.90544303029264    1.83917540245353
N          -1.99329455331823   -1.28534892216645    0.58379391193485
H          -1.16641517202706   -1.74147646894378    1.09828327996563
H          -1.69203204094847   -1.16042257501341   -0.39374353765672
H          -2.83766304970346   -1.84219356304084    0.65377935982247
