    26
        -50.46633003  Gyration_radius:  2.51078036844 Dipole_moment: 2.610
 S          -1.64836044730068    1.08908224842855    0.68990384796728
O          -1.56837649258197    0.50212900346303   -0.62171135939999
O          -2.41484497528409    0.34485707966042    1.66104876998973
O          -0.31321485094570    1.44835051758914    1.19534679526509
O          -2.40627966733432    2.47995899225760    0.51508938017388
H          -2.77610859181756    2.61523262339928    1.38146839501751
O           0.72853731911419   -1.76439006117567   -1.57942537865749
H           0.01618347405190   -2.34595826744135   -1.84868055734510
O          -1.92906137892928   -2.24891389256136    1.65679647764839
H          -2.13445721276471   -2.54513169685635    2.54545370898427
H          -2.25292393233613   -1.32247774664682    1.60189392262041
O           2.91472086718844   -0.66984137821868   -0.00138415506691
H           2.25217138294855   -0.95319793317595    0.65036496947563
H           2.73649776617879   -1.21195250409022   -0.77833694813886
O           0.41803763038145   -1.12861679708652    1.03456133421586
H           0.12198059872008   -0.21344109421973    1.18216533605130
H          -0.34237161947388   -1.69079804367243    1.29488153585290
H           0.52742929914228   -1.52341008173334   -0.64666788936451
O           0.20614865103704    0.70571157543308   -2.55811725655769
H           1.11734348788917    1.35214306166861   -1.49212335506465
H           0.47842906348371   -0.23037269856942   -2.47218899059910
H          -0.61588308999188    0.73904642108193   -2.02487570458329
N           1.62414007512005    1.61137727442830   -0.57602803828941
H           2.11919550797278    2.49302706256674   -0.64129499633090
H           2.27067367779334    0.81628301384764   -0.33372564636296
H           0.87039343771963    1.65130333162824    0.16558581251230
