    26
        -50.46633008  Gyration_radius:  2.5109931091 Dipole_moment: 2.614
 S           0.50524174469256    1.32415554033254   -1.53981836260030
O           0.96610362546978    1.46052801056620   -0.18323484307427
O           1.44739885598794    0.73776609418564   -2.46330754664821
O          -0.80791733349865    0.66097881996392   -1.59256177069430
O           0.23801623165775    2.80158520427502   -2.07451022637023
H           0.33326770028409    2.69347158313564   -3.01531076863901
O           0.73013101342268   -0.92863392962297    2.17865670416027
H           1.67498005972308   -0.85938033547436    2.32200466306722
O          -1.82453361863193   -1.99225116838988    1.28232881770161
H          -1.25566213646182   -1.93507451266580    2.05849727919211
H          -1.21375675325223   -2.15274876048674    0.54397417940878
O           2.70050409203752   -1.38600637544588   -1.52302827866669
H           2.37585800561062   -0.52365420335073   -1.86521127322845
H           2.93739705743902   -1.90127852987313   -2.29638094108728
O           0.26436584203477   -1.50488939897074   -0.42599683843399
H           1.17151632809616   -1.63699264912506   -0.77471166394258
H           0.62504802419609   -1.07692485476211    1.21144229479353
H          -0.09878611382860   -0.75823565882277   -0.93354620939905
O          -0.29885362850114    1.57571097163443    2.12452484163138
H           0.06796081447092    0.71914525215472    2.42363671837085
H           0.25033030255831    1.78092184404049    1.33867122694337
H          -1.53158614141000    1.08232222231270    1.33616858423969
N          -2.19262408325898    0.58745123274485    0.64234074341242
H          -1.72481410281984    0.66675704705069   -0.30351095490596
H          -3.11881224355862    0.99805754724920    0.62728455488242
H          -2.22077355245112   -0.43278099266168    0.90159908986618
