    26
        -50.47399128  Gyration_radius:  2.3894558973 Dipole_moment: 4.399
 S           0.36498512445284   -1.38658455081323    0.07934559816195
O           0.82692604563407   -0.17755088847045    0.77948966270334
O           1.59785463602899   -2.29881875756903   -0.13018962261473
O          -0.63066041773398   -2.10319208509479    0.82502542831520
O          -0.12684542460137   -1.00884010546106   -1.26115239616199
O          -0.52751663080917    0.30636199953757    3.04555940775883
H          -0.27571206603415   -0.36687126165459    3.67988956699917
H           0.03378608704232    0.15769433423423    2.25877879900609
O           1.36699796544314    0.76381532844434   -2.44019222522451
H           0.78707194675538    0.06071175803978   -2.05058474237583
H           1.43178278573485    0.57379195515861   -3.37715160731054
O           0.10822035040573    2.16529291083391   -0.33501097408493
H           0.59670889616549    2.07329814854970   -1.16466006944306
H           0.44907705002873    1.44429473530924    0.23011236541472
O           3.12674281635531   -0.24982494389665   -0.60265260268834
H           2.31918389467994   -1.66654034413318   -0.38234024667494
H           2.74457103219201    0.20095650798944   -1.37761836629028
H           2.63942528320662    0.10315644932117    0.15554947322467
O          -2.61595129904019   -0.50471167705793    1.59124602228478
H          -2.40437067161223    0.29150198490973    0.29893041192342
H          -2.07364086569333   -1.28707162032700    1.35978078790151
H          -2.07329881632542   -0.05862707917118    2.27643193056571
N          -2.04564292528719    0.67127081230219   -0.64891500165495
H          -2.80737899761462    0.90972712118844   -1.27431173999530
H          -1.43213765880575   -0.09124062446130   -1.03847631612955
H          -1.38017814056962    1.47799988228439   -0.49688354361569
