    26
        -50.46851036  Gyration_radius:  2.45258317537 Dipole_moment: 4.999
 S          -1.47654015165406   -1.18308552610194   -0.84520966830360
O          -0.35076633583892   -2.08426003814149   -0.63253836777980
O          -2.07339877167743   -0.77714971133033    0.41917605546428
O          -1.14804775872350   -0.07690918304861   -1.71612564459467
O          -2.58250060515784   -2.02755651870809   -1.59905942190499
H          -2.74842105970492   -2.72989132439570   -0.97949442809925
O           0.33579730382414    2.10582796640496    0.70752992326368
H          -0.56224470619315    2.31827289134968    0.37979324305099
O          -2.18927098438260    1.91669268605049   -0.24910290838819
H          -1.89337571227852    1.35164907307471   -0.98379744873474
H          -2.58329264250273    1.28859111213854    0.36557136820101
O           2.43773271859548   -0.12323035040541    1.74386887708661
H           1.52366283753984   -0.29656615682607    2.03644146725348
H           2.50616940844066    0.83333361785549    1.67112488008080
O           1.18191859688795    1.28335110579295   -1.70120988576544
H           0.99068073150099    1.74821831300057   -0.85352237774329
H           1.80529416020100   -0.04309760181687   -1.24163768049536
H           0.31733069839318    0.92863733606036   -1.97520093113842
O          -0.24389810845523   -0.21898791742196    2.16708734768092
H          -0.68396528705007   -0.28756647165632    3.01604863842105
H          -0.91457882740832   -0.49624986268848    1.49130081198120
H           0.19021043990144    1.35397894593123    1.30198922877127
N           2.02053594226477   -0.98456739600544   -0.76016609622887
H           2.71564641985611   -1.52346488428611   -1.26339639546060
H           1.09754626044001   -1.50436948726163   -0.71905426106046
H           2.32777543315382   -0.77160060758454    0.21958366446195
