    26
        -50.46851028  Gyration_radius:  2.45249853202 Dipole_moment: 4.998
 S          -0.31394164897775   -1.42774250798044   -1.46876845169916
O           0.71278098226103   -1.99787855114338   -0.60527088138532
O          -1.60205424776018   -1.37355628198539   -0.79222743819188
O           0.08824122727766   -0.17013590183425   -2.05731649975507
O          -0.49386654808872   -2.44210395509300   -2.67011489233535
H          -0.75195049708201   -3.23738581925731   -2.21664234415172
O          -0.77301883268455    2.00439807928570    0.65812090021553
H          -1.35052169752760    1.99837822784115   -0.13276142857867
O          -2.13811353488569    1.24363236543250   -1.55212599353603
H          -1.32916232502245    0.88612919272408   -1.95742763834395
H          -2.59231979516418    0.45480908340328   -1.23737823556728
O           0.95482177747487    0.33738438321528    2.82326155899809
H           0.75732695410781    1.27577160916246    2.74986741473932
H           0.13781253050342   -0.12187845100960    2.55370326229183
O           1.46987918725755    1.77321704364909   -0.79478664893803
H           0.70968255104312    2.05104656740617   -0.23250485448827
H           2.10011524614109    0.62588415394015    0.00841900193455
H           1.06063329802851    1.22986462038612   -1.49171417553222
O          -1.32648692882280   -0.56007741739060    1.65234013970732
H          -0.98768077891817    1.17076757856590    1.10401424808618
H          -2.11827818073467   -0.85851950517476    2.10290044104545
H          -1.38599826099832   -0.92290941519187    0.73137754467530
N           2.28532744964494   -0.27239143099946    0.57720433102834
H           3.26665585827778   -0.52477882196244    0.58833271636422
H           1.70597725248330   -1.03027993583093    0.11486553276920
H           1.91413895221149   -0.11164488001493    1.54463241062414
