    26
        -50.46850993  Gyration_radius:  2.45295085268 Dipole_moment: 4.986
 S           0.03899381689558    2.02457667962376    0.44222811779348
O           1.26174575199181    1.84063570297288   -0.32631172571604
O          -1.14218317353488    1.84868919194059   -0.39359817230358
O          -0.01283350067569    1.23552653145457    1.65247317005877
O           0.03538837116084    3.53932869742932    0.90055354410616
H           0.07688196985596    3.99654632234322    0.06750360631493
O           1.19815460610938   -1.87265237331821    0.34342064649232
H           1.79931368366286   -1.33832553699485    0.90204037729231
O           2.45777412712108    0.18858716764174    1.56511216283677
H           1.60795857024682    0.56392388049609    1.85475528375896
H           2.70117741758681    0.74519410318347    0.81801316351744
O          -1.00325076652440   -1.96732693787587   -2.03117727562879
H          -0.30598247288033   -1.30207101496285   -2.18141200695272
H          -0.58292551591161   -2.66943209935919   -1.52593997261532
O           1.05754843990845   -0.20243662082805   -1.90654620314210
H           1.72450054652536   -0.06117751526730   -2.58050654774916
H           1.17906215178367   -1.39077542058527   -0.49751714466111
H           1.07843013216277    0.60528760915600   -1.33151402155936
O          -0.95047539944009   -1.28842761238876    1.83831062595116
H          -0.17783445190897   -1.68823471722634    1.37506539208782
H          -0.64657324787816   -0.39363770212978    2.07324395929960
H          -1.88242904900190   -0.88619754218866    0.68567293499070
N          -2.31167989233182   -0.48584388094495   -0.21990571751842
H          -1.96811156534704   -1.07541447508446   -1.01606228084961
H          -1.90870580160328    0.48923767488259   -0.32349201088363
H          -3.32394474797185   -0.45558011197273   -0.18440988491802
