    26
        -50.45511600  Gyration_radius:  2.50358281027 Dipole_moment: 4.625
 S           0.71529800132206    0.88242157137716    0.01545312513541
O           1.50844556828360    0.31017387342418    1.07984407113280
O           0.64445435651512   -0.02736866273796   -1.14126596042117
O          -0.61898161150852    1.27984864212324    0.44324028304403
O           1.40596289522925    2.18273586902555   -0.49133459294649
H           2.31346444578125    1.85286085123320   -0.73554325575078
O          -1.82935550333769   -2.56553013501747   -0.16613537926506
H          -1.50804477844059   -3.43851586985771   -0.39895417260257
O          -0.99779757150500    0.46884559076479    3.00224043424652
H          -0.97151692748685    0.86927666656841    2.11427363676744
H          -0.16596410940806    0.71082161722661    3.41517015216924
O          -2.73323709946473    1.27675754484935   -1.07923487222943
H          -2.70799468291059    2.08394735926458   -1.59640881084210
H          -2.02274151314339    1.36096663207959   -0.39713105225463
O          -0.17514548254718   -1.71822462081462    1.64345070092925
H          -1.22363504398173   -2.23331885747418    0.56129272614010
H           0.55234087132725   -1.13491738558620    1.36355652886809
H          -0.66450934752625   -1.17040765559713    2.28903124758046
O          -1.55151556926604   -0.80617101337963   -1.94288159290320
H          -1.74216557692929   -1.56600601504547   -1.25324635014230
H          -2.15638527776270   -0.02260234300313   -1.68752995886134
H          -0.57703226796028   -0.47095962167430   -1.66223643658211
N           3.52038741564498    0.71157063705616   -0.87322138318612
H           4.52996415369977    0.78472644636463   -0.87713089408711
H           3.23536353323096    0.09525434140173   -1.62385071809454
H           3.22034111214409    0.28381454742745   -0.00144751583959
