    26
        -50.46272420  Gyration_radius:  2.48169319499 Dipole_moment: 6.114
 S           0.14721023940005    2.25911297789008   -0.58976739665434
O           1.55931631732239    2.48793684645710   -0.75844632713869
O          -0.35564152403414    1.15077753068266   -1.42535914622551
O          -0.30524000426001    2.10115245855003    0.77037080439730
O          -0.56527564321630    3.56221621469554   -1.16909674828174
H           0.14612663617598    3.94482962593518   -1.67195892917583
O           0.88512491188497   -1.31517912120377    1.75576859266390
H           1.52242458762405   -1.66668516594793    2.37898919524139
O          -0.39256192393205   -2.64041195576480   -0.18848980785293
H           0.10680337870837   -2.22384400467230    0.55299509915094
H          -0.29807237093976   -3.58845701227091   -0.09186911005215
O           1.12291000354821   -1.04520886162047   -2.04549879862660
H           0.57775834765870   -1.70467703096475   -1.59663156910529
H           0.60895937349825   -0.21880489396829   -2.03061021808164
O           2.28900948840889    0.08258668556684    0.11694609114398
H           2.12182685616813   -0.38619226756873   -0.72710583301390
H           2.12211938468222    1.02172066600830   -0.08860601417597
H           1.41184726536314   -0.69282052715285    1.16113316625546
O          -1.34084558914089    0.20274979501068    2.25603990698625
H          -1.86857392110247   -0.18095438929241    0.86370072969639
H          -0.55022017270432   -0.36378311991239    2.31481042553587
H          -0.99314436789613    1.06134436176885    1.93628223876499
N          -1.99538426644362   -0.41789026786989   -0.18335804784661
H          -1.37094666779031    0.27418446217920   -0.71892770180035
H          -2.96036238668666   -0.33647800403198   -0.48171358549912
H          -1.62516794230843   -1.36722500250299   -0.33959703627663
