    26
        -50.46272423  Gyration_radius:  2.48182112045 Dipole_moment: 6.103
 S           0.57787023996616    2.05198852135195   -0.96346724102522
O           0.34956543235302    2.18789394867683    0.45400973975521
O           1.95037682314828    1.87474167734330   -1.36306650756788
O          -0.31859634572948    1.02351787089866   -1.52699487265283
O           0.11180046258361    3.41645650706420   -1.64323319979034
H           0.79598777705783    3.53311365547751   -2.29405894825866
O           0.84099820009218   -1.27905324503613    1.80259352609036
H           1.47496030553808   -1.70649000344026    2.38008800362567
O          -1.04318307088266   -2.44604275129038    0.29979805201660
H          -1.15923618796102   -3.36826017699815    0.53002156187584
H          -0.33488576531181   -2.08934424780522    0.88602123932476
O           0.45377840465578   -1.54239949737821   -1.98707153635884
H           0.16536408369591   -0.61395286003612   -2.03326788054834
H          -0.14494077985063   -1.97519858472658   -1.36429436827185
O           2.22589926189648   -0.51444456278910   -0.22381432517625
H           2.25551902551023    0.40383852586181   -0.55270527576278
H           1.38821257987334   -0.89659670552537    1.04571278360930
H           1.80176540655891   -1.01975471236337   -0.94840236208025
O          -0.82744205043666    0.82174028816418    2.35948783958834
H          -0.34714957455611    1.51328744159391    1.85786859553589
H          -1.67276483874991    0.42434653256818    1.13890016755982
H          -0.19850340255430    0.07830265404816    2.39615231053018
N          -2.03848522340037    0.10440786300921    0.17302667201321
H          -2.99289190480110    0.40108499703048    0.00594887128439
H          -1.94180374142854   -0.92051742063220    0.12176155801315
H          -1.37221510726619    0.53733426493287   -0.55101442332899
