    26
        -50.46173130  Gyration_radius:  2.49805296304 Dipole_moment: 7.258
 S          -2.10879197821237    0.02773371349494   -1.06753898041990
O          -1.80151864134423   -0.54352327280411    0.24471977592611
O          -2.09272375822694    1.49208864471377   -0.98949635914169
O          -1.29200506501740   -0.49825849489805   -2.12159977354141
O          -3.60974502631196   -0.36613590566661   -1.37779288676976
H          -4.06885532183162    0.06018142848604   -0.66197151647522
O           1.74424238318849   -0.90470240145653    1.65958872949289
H           2.35999675414306   -1.47281197936433    2.12319989433052
O           1.23359174941429   -1.38796031199287   -2.03189446236956
H           0.32973639631429   -1.12434023843751   -2.28350564065133
H           1.64202790353492   -0.58630630426591   -1.68047405217835
O           2.27275177355338    0.73768270314275   -0.37218052320424
H           3.21720690081476    0.86944739523506   -0.46329357721896
H           2.14176561776703    0.12344023821396    0.39061072572052
O           0.18798754984939   -2.34713159286107    0.24353258085541
H          -0.63448725154851   -1.81914030087496    0.22027491968810
H           0.59213285360282   -2.22352012116926   -0.64462828678080
H           1.13012052733194   -1.53044077062869    1.13615297647709
O          -0.48512966161275    0.58374578452766    2.26849144989608
H          -0.14563399082868    1.66361113210477    1.20478697032343
H          -1.10458260852839    0.09789492871386    1.68307851705030
H           0.31466165617399    0.02972744887643    2.29799655743522
N           0.02616899160305    2.18546166579054    0.27979144739694
H           0.10960533647645    3.18687217916571    0.41491476550969
H          -0.83847641372802    1.95388128881501   -0.32402031324588
H           0.87995328341070    1.79250313313346   -0.14874294807364
