    26
        -50.46173139  Gyration_radius:  2.49813472483 Dipole_moment: 7.267
 S           0.94237913695513    2.16590324676583   -0.09729491464716
O          -0.40541594624143    2.72195464846126    0.06136029162888
O           1.18580023513354    1.15158069266910    0.92967042914703
O           1.21916122963743    1.70633188452393   -1.42658700499464
O           1.93474983084329    3.35745581666700    0.21811000564274
H           1.64526961108592    3.62040009732519    1.08530752010925
O          -0.06701289591265   -2.46645109600991    0.72713625177256
H           0.14971460465359   -3.39004485313588    0.85682715972979
O          -1.53608304502793   -1.40631799826709   -1.22816263660806
H          -1.01358042806804   -1.85840139627180   -0.52187072578898
H          -2.02326456019712   -2.08809762827275   -1.69235858287086
O           1.00430561696764   -0.76160125884530   -2.44700567075860
H           0.07130737116069   -0.90679746955453   -2.24360380323135
H           1.15606606719315    0.18721756995151   -2.28428819763901
O          -0.59935857080118   -0.27553087235453    2.29960138665702
H          -0.41892155409525   -1.16940119216768    1.95905048633972
H           0.15775552848809    0.26689676730461    1.99155414034298
H          -1.59411387628030    0.31851997342052    1.26461068571231
O           2.03066711892902   -1.21692738931014   -0.01185544788150
H           0.80808922459365   -2.01089913479127    0.46388948707239
H           1.85984816908648   -1.13948553401553   -0.97735859272432
H           1.88214826658951   -0.31773696012158    0.34185476884140
N          -2.03045340268476    0.76390600596874    0.38798839433364
H          -1.40393853715219    1.61849029140543    0.18050251658778
H          -2.98978501495271    1.05343193686317    0.54245373198006
H          -1.96533415989457    0.07560384178761   -0.37953166879832
