    26
        -50.46116246  Gyration_radius:  2.44669872396 Dipole_moment: 5.262
 S           0.06546817179950    2.07907008391306   -0.41232741699005
O          -0.53074829395981    2.54291893909770    0.84134157951413
O           1.29227809846793    1.33626563546301   -0.15193051591839
O          -0.86329862077762    1.35210297305730   -1.23786308723345
O           0.48131136130810    3.37689923915998   -1.20961227945226
H           1.07562329618972    3.81340125482821   -0.60740118505928
O           0.69059146144022   -2.32994763936477    0.48655183561132
H           0.52533017791398   -3.25042064006696    0.27937131249155
O           1.40289773589666   -0.83422903024365   -1.80151760490638
H           1.48697302831189   -1.46797922705894   -1.07543680436361
H           1.37522362887594    0.03641503494401   -1.36976279293350
O          -1.08752293048052   -1.52078867063258   -2.65118247545522
H          -1.43726524283847   -0.70520651195465   -3.01707884278301
H          -0.13946213506040   -1.32438580710965   -2.48281649479381
O           1.57624627503255   -0.22970283566212    1.98070183554077
H           1.66773964490609    0.39904388371249    1.23168370784788
H           0.09867255604786    0.07432532629930    2.28766201601063
H           1.54252273131385   -1.10699751772194    1.56604432330456
O          -1.52125378981125   -0.92204199874684   -0.11164730768577
H          -1.30030667265777   -0.03259348340492   -0.47697504956373
H          -1.65051861611810   -1.42190654501866   -0.94724845846580
H          -0.13981372588827   -1.84010843259688    0.27574409767730
N          -0.93067315400761    0.39753069875096    2.20823116434196
H          -0.86087173232316    1.35142928605057    1.71601261224419
H          -1.39373719243185    0.46962535908910    3.10738631328909
H          -1.42540606107954   -0.24271936473298    1.57206953774220
