    26
        -50.46116247  Gyration_radius:  2.44568935736 Dipole_moment: 5.294
 S           0.16569406320010    1.75176990108420   -1.17939700031660
O           1.42010713884103    2.24843002513868   -0.61194766088043
O           0.35948692594710    0.43733744039708   -1.77886527135180
O          -0.92361301446575    1.78171655990164   -0.23850451089223
O          -0.20746786361436    2.73628724990893   -2.35580604737968
H           0.54956668631549    2.67590107298365   -2.92994514709971
O          -0.07641882822805   -2.38143339340337    0.68915213278447
H          -0.53541379460180   -3.02230660244490    1.23323829598821
O          -1.78377916023363   -1.14658473469408   -1.19219770148240
H          -1.24882160427259   -1.83509654024902   -0.77298223856710
H          -1.14135231602383   -0.48368497393924   -1.49717888766890
O          -3.06701459626672   -0.22215027736204    1.02109985697896
H          -3.22330631576968    0.70331777209988    0.81961936184837
H          -2.74586967453410   -0.60326988621337    0.17434603904099
O          -0.52792019398424    0.06673375709514    1.70416039111821
H          -0.61391157366920    0.74415777065488    0.99190534129960
H          -1.47624297468230   -0.13574461245877    1.86007031381257
H          -0.24351835641651   -1.49670578664880    1.09341378947227
O           2.01502520612114   -1.36274900565065   -0.73025809915975
H           1.38031197192002   -2.00219187064256   -0.36820604512259
H           1.47681416887326   -0.76766637041761   -1.29682245900010
H           2.21949259262069   -0.37016842782464    0.42778883424830
N           2.11153887450138    0.46267410389836    1.11002451773549
H           2.93853472349181    0.62233078836078    1.67458698774518
H           1.27628843123463    0.30331739437923    1.68982029051092
H           1.90178949368465    1.29577862605907    0.46288494632247
