    26
        -50.46147054  Gyration_radius:  2.59188115278 Dipole_moment: 4.230
 S           0.02370914757227   -0.62514123645701   -0.40677322501521
O          -1.43110373105382   -0.35330210773743    0.12583803568515
O           0.84507276509379    0.47847401135803    0.07068916803178
O           0.45641148763197   -1.92029547436875    0.05992378383332
O          -0.12163037061065   -0.54705158764409   -1.87057777365646
O           1.93821368538971   -0.95391217553451    2.07395553687632
H           1.61655193989659   -1.59902458399189    1.42229375581362
H           1.80594315305144   -0.11530832502476    1.60849056803935
O          -0.06995374361686   -1.18275346899093    3.81074920108005
H           0.72970090196548   -1.02664387814489    3.25241915759302
H           0.21973853382193   -1.72363698703842    4.54697399785420
O           1.59439122568705    1.19472679838102   -3.01717786407677
H           2.49896696051567    0.90715826840591   -2.88504240119163
H           1.03010340865447    0.46884346360493   -2.68369348566903
O          -1.54022158215568   -2.22531238262924    1.83572446711215
H          -1.13259730388438   -1.84916833284684    2.65083242321487
H          -1.60305120395029   -1.04621486406849    0.84421698096942
H          -0.80670503160517   -2.60335165136100    1.32701781325229
O           0.44479964871629    2.76060253460748   -1.15977127548050
H          -0.87503037780735    2.20258687510857   -1.57631313895088
H           0.66364788050277    2.04814602553167   -0.51351081644608
H           0.99350902314021    2.52057151468237   -1.93434097463751
N          -1.67520755869714    1.49699099508720   -1.85132098731610
H          -2.19673776654968    1.78306275857620   -2.67362416664534
H          -2.28293292496862    1.32639142491674   -1.05157557581546
H          -1.12558819674191    0.58356237557459   -2.00540318445656
