    26
        -50.46690450  Gyration_radius:  2.50935792616 Dipole_moment: 2.767
 S          -0.29196398583315   -1.14829130130062    1.44448887412133
O          -1.58635717284428   -1.78050063446536    1.48802975139005
O           0.35982634900855   -1.30174759667100    0.14222305395138
O          -0.26162020830431    0.22931108598483    1.88490954837352
O           0.61202959334361   -1.96335549051906    2.47917305777141
H           0.15931107015938   -2.79923122981353    2.51675146632266
O          -0.41121619076874    2.16167319109783    0.01037623359488
H          -0.52163496484875    1.69255369767100    0.85636344120708
O           2.42553695334619    0.20236580051132    1.93548321460117
H           2.64633375315663   -0.54947058973826    2.48686962248716
H           1.46271100324519    0.30838248278596    2.02931732130633
O          -3.34513358644338   -0.70100006039744   -0.20256456916778
H          -4.01891568979705   -1.36462738148494   -0.35868694495796
H          -2.75855332331235   -1.07067063402410    0.49037148132728
O           0.94490063404270    0.84932026846230   -3.18082986815514
H           0.69698362517754    1.63728651047805   -3.66683313383685
H           0.12054727565424    0.49335138677315   -2.80450386340710
O          -1.18038352998494    0.07588375190861   -1.58663656560918
H          -0.91566884437189    1.62946118574642   -0.63486599065300
H          -0.64798662194067   -0.54271838823130   -1.05161073159083
H          -2.09902206564098   -0.11505616171643   -1.31856424487985
N           1.76267521276987    0.82218703910283   -0.60554872395531
H           1.85007526752230    0.84213187392450   -1.63617008856540
H           2.62449889564877    0.95358178521828   -0.07971735843863
H           1.02476609271160    1.54032730402726   -0.32424779100283
H           1.34826044832506   -0.10114787537576   -0.31357720224400
