    26
        -50.47071317  Gyration_radius:  2.41582176468 Dipole_moment: 4.154
 S          -0.17913883423687   -1.80438941544793    0.90634672595007
O          -0.34790970752134   -0.80760242026414    1.96618150424784
O          -1.20226866243181   -1.69394811783027   -0.10528553723182
O           1.17751264435349   -1.80129195045498    0.38553530625813
O          -0.38102998495770   -3.21713494678296    1.59212317158743
H           0.42666929670598   -3.32235865311166    2.08314961315186
O           1.43843397858948    2.06813797618102   -0.20553809398021
H           1.97883228617169    2.85075648428172   -0.09223710350073
O          -0.91869375259646   -0.36305071946338   -2.39536549410406
H           0.06611037522834   -0.39927810494242   -2.44557687805837
H          -1.13679471106295   -1.01236805631718   -1.69641472354085
O          -2.44527291415032    0.44573967014692    1.06105607553565
H          -1.69082227622429    0.05682477109217    1.56137663022886
H          -2.78503311714367   -0.31008378719873    0.56870938978162
O           1.65809194437512   -0.31062945779476   -1.81338931851578
H           1.77012257703155    0.55363472890920   -1.39574979544852
H           1.56621553444717   -0.95173082184377   -1.08245426508108
O           1.96142741469222    0.38785737655483    1.70559367042118
H           1.64850356770106    1.47121531610298    0.57172738961252
H           1.08087706052179    0.12226974731564    2.04042503213308
H           2.22174793797686   -0.39752215754926    1.20115358859467
N          -1.18589640761992    1.71897924035129   -0.88305690109104
H          -1.66654172060808    2.52408611470892   -1.26824678713124
H          -1.11838362143527    0.90860118508920   -1.61121531049360
H          -0.21937407575357    1.96640880200009   -0.59599538353197
H          -1.71738483205147    1.31687718627001   -0.05285251579529
