    26
        -50.46208042  Gyration_radius:  2.44283743963 Dipole_moment: 6.105
 S           0.24123458966971   -1.38311024370401    1.55092856344575
O           1.54267857493093   -1.87720939325954    1.14218308967490
O           0.31196669611619    0.05143991494754    1.86481809907060
O          -0.81630522359206   -1.66820218751009    0.61630538249948
O          -0.10330503777528   -2.12310052954557    2.90294485480344
H           0.76522326284934   -2.30601963460811    3.24516266278503
O          -0.15439451891619    2.10029508609545   -1.34932411213252
H          -0.37653688023788    2.57501428009973   -2.15063014242036
O          -1.87867947088209    1.35910771730085    0.82169473619741
H          -1.38012420401471    1.88293383205098    0.18180694381705
H          -1.21907151380013    0.83820733318008    1.30810871537414
O           2.21500329357038   -0.95657623407653   -1.22585954246877
H           2.05816836141004   -1.49322857341867   -0.41510939635957
H           1.39805684348463   -1.00729345321905   -1.73974844955964
O          -3.09433045753437   -0.40282616069139   -0.89530880555638
H          -2.93679939411288   -1.22014943929677   -0.41375828975387
H          -2.85230142548570    0.29788822112831   -0.25677079729010
O          -0.56101702768885   -0.46313362065896   -1.70693957499885
H          -0.53966267951564   -0.93898558927067   -0.84540854503638
H          -1.52965294515728   -0.42786842605209   -1.85605027815945
H          -0.32452285869082    1.13204107196791   -1.53563428083734
N           1.87281264750925    1.23392296346174    0.15705063696984
H           1.29683110654895    0.80252592369932    0.94572525784433
H           1.23010912921690    1.83036746350522   -0.40148844773303
H           2.66449188886001    1.75399728626201    0.51754791971622
H           2.17012722341776    0.40996235178458   -0.46224618999164
