    26
        -50.46229157  Gyration_radius:  2.41156871373 Dipole_moment: 5.647
 S          -0.56154399537789   -1.87751005357101    0.49484123841828
O          -0.57530795361730   -2.70203324650758   -0.68185784799938
O           0.74624124915041   -1.80843382449080    1.13995400087149
O          -1.12204791210410   -0.54371109462918    0.31727057302866
O          -1.53343347554858   -2.58048243438317    1.54123145553242
H          -1.43857529443296   -3.50017558796243    1.31625231386147
O           1.99470040052956    1.16133682232153   -0.97765117838684
H           2.84326900095607    1.20419062098525   -1.42004635024757
O          -1.86556010103271    0.06534978027039   -2.30579866758885
H          -1.88988054087157    1.01185969553877   -2.12786299006864
H          -1.88649463778550   -0.36684589704603   -1.43891427447804
O          -0.65029419651627    2.07233325631323   -0.52104076955082
H          -0.81037434209204    1.13372695611222   -0.33053777159667
H           0.25091447221327    2.11068628161053   -0.85985801382811
O          -0.95861712934714    1.46397725008380    2.15487611179422
H          -1.09801877833202    2.13412667691408    1.46814541100081
H          -1.29342599128045    0.64201696672983    1.75364009101116
O           0.70618218754475   -0.81607396468519   -2.07246875674366
H           1.51912803828629    0.38074872127123   -1.38581282512778
H           0.41784808802705   -1.61470086305353   -1.59709286740911
H          -0.12453031583308   -0.46502920400822   -2.44966853634329
N           1.49022597433090    0.60166242269315    1.61328521867457
H           1.77740646124560    0.94851660340506    0.67080617053616
H           0.59629409984465    1.07552904640727    1.92979969328636
H           1.23142513738107   -0.43468693551004    1.47455883774494
H           2.23446956466346    0.70362202519373    2.29394972361054
