    26
        -50.46253634  Gyration_radius:  2.46010545804 Dipole_moment: 5.003
 S          -1.21184299623333   -0.99677300019310    1.34905960927221
O          -1.32779580679887   -0.54873276744449   -0.02930054793819
O          -0.50915399793650   -2.24105776736875    1.51880348842824
O          -0.70894285524810    0.07963122153283    2.20014001682984
O          -2.70849609579417   -1.26421366426030    1.82117046475155
H          -2.58196863786788   -1.85829164538476    2.55374168244114
O           2.08291330942834    1.16429356182326   -0.23725407524667
H           3.01734487694551    1.36411965760836   -0.17169119081525
O           1.27942009341526   -2.39180150312238   -1.82179562316165
H           0.93563837675868   -1.55193943758744   -2.18468357523338
H           0.51198850169240   -2.91791957870849   -1.58812534128099
O          -1.92841569262961    1.79557668493413   -1.13444785931538
H          -1.44067936572871    1.62703434439923   -1.95063756392358
H          -2.05339712454832    0.90782056886691   -0.74441758763936
O           0.23907372280164    0.12449746349902   -2.11661993302174
H           0.97723365989819    0.57658102322397   -1.68518917554409
H          -0.32786182247816   -0.19657052929333   -1.38994438170406
O           1.79304157924799   -1.26189512172294    0.58655476925685
H           1.97649566733928    0.23647479160604    0.13860928334643
H           1.01141295985154   -1.59493974853641    1.06298500250965
H           1.80373738258845   -1.76751317791076   -0.25483755821457
N          -0.16221082386677    2.17752599300495    0.81876575134202
H          -0.87207179718769    2.19710176900587    0.03485716393426
H           0.78008163247790    1.95950754407861    0.42528253339338
H          -0.15872931323777    3.04153570846627    1.34893937862572
H          -0.41681541289188    1.33994761946369    1.45003525890120
