    26
        -50.46361293  Gyration_radius:  2.49254360822 Dipole_moment: 6.637
 S          -0.74650322090291    2.20534984012726    0.34425901465157
O          -1.29024848755318    2.31725013415442   -0.98833383576578
O          -1.00831766003352    0.93012301880657    0.99047265605570
O           0.67935609340990    2.53267925428328    0.39372861038382
O          -1.48848966693889    3.30398763822326    1.21550313558618
H          -1.60355267893352    3.99557007414259    0.57253489406755
O           1.27857154030354   -1.06591012689413   -1.59163285790694
H           1.71239117200282   -1.24452395588907   -2.42673981608869
O           0.10481907542881   -2.72041966727745    0.24978574348147
H           0.55463934357099   -2.20237760780244   -0.44655066935831
H           0.09683452416676   -3.63395169971464   -0.03791752271048
O          -2.24961086218486   -1.18042425797005   -0.15440961792482
H          -1.60005721922440   -1.84789405838301    0.10785268997811
H          -1.99948361757739   -0.37558748996418    0.33441837048775
O           0.50848605496239   -0.84537410959230    2.27956484217777
H          -0.17834524830918   -0.19329970349529    2.03146329797354
H           0.27838810575527   -1.65552426884832    1.80019220910966
O          -0.95623725549920   -0.01993239719064   -2.18646817492295
H          -1.58671735281316   -0.52474704238125   -1.62425911385424
H          -1.06121603086467    0.90444659154439   -1.87635640471771
H           0.39345899925345   -0.60922011960507   -1.84070479080437
N           2.06761987110485    0.38018203805786    0.56810662896372
H           1.91384494479828   -0.14177377333620   -0.31796239932895
H           1.54290438437325    1.31922103701214    0.49531089838060
H           1.58441987839359   -0.15670360050214    1.35565822516131
H           3.05304532330954    0.52885425249558    0.75248397692264
