    26
        -50.46627135  Gyration_radius:  2.4458631441 Dipole_moment: 6.888
 S          -1.62616984090770    0.93446114333663    0.67239200795383
O          -2.25198374320932    0.09111138172872    1.64953182152613
O          -0.24561817411256    1.30031513822441    1.00920697165097
O          -1.68209365412425    0.44179828663612   -0.69633099899943
O          -2.44292399623258    2.29457056695807    0.68313955574402
H          -3.01167504989770    2.13947528892457    1.42888051548285
O           2.17560561624552   -1.17079110966016   -0.49004688175921
H           2.72684788034551   -1.85801314022215   -0.86471559011530
O          -0.43168916154154    1.19537758771369   -2.86397947228762
H          -1.05427828777756    1.00693483714125   -2.12290033168938
H          -0.49484546431136    0.43740025709862   -3.44901602456176
O           1.37373162310956   -0.57079403087585    2.20760519997947
H           0.80197463187771    0.17021139806148    1.95033804991511
H           1.85536850748886   -0.82376944335305    1.40920744457350
O          -0.80055778732721   -2.20565485106812    1.88459349604474
H          -1.46820093905020   -1.50089389238117    1.93145089526107
H           0.01287525412845   -1.80208817738804    2.24174357010305
O          -0.28798053216495   -1.86732009845267   -0.67347570808344
H          -0.49959813611894   -2.20150317997206    0.23637502260610
H          -0.85992681686140   -1.08584151597032   -0.77382895365125
H           1.21982106031057   -1.49790167772109   -0.57485889561390
N           1.42536120872826    1.33147090158357   -0.97260064767156
H           1.90200190670939    0.40351674653105   -0.87382350609055
H           0.82936155995466    1.33533310166550   -1.84187425151469
H           0.74700076838216    1.40342905791141   -0.14600546097830
H           2.08759156636058    2.09916542355504   -0.96100781782832
