    26
        -50.45901856  Gyration_radius:  2.42458066115 Dipole_moment: 2.997
 S          -0.32016846051999   -1.97459113409517    0.04115300467995
O           0.88693157814650   -1.67579691485742   -0.70511843728767
O          -0.16053693909059   -1.66723264607084    1.46322078703022
O          -1.51378634475821   -1.38415379784471   -0.51854070158603
O          -0.52290398949726   -3.54122868037646   -0.04271079678684
H           0.32081615976687   -3.87107615321050    0.24771214678571
O           0.51812217901574    2.17719346601822   -1.01296287632920
H           0.58603567486288    2.98501519338051   -1.52265539204287
O          -2.33945458492464    0.18535664154287    1.44903288027255
H          -2.15575762261042   -0.39041265006384    2.19560958421163
H          -2.15471658911941   -0.36464633379271    0.66053364499393
O          -0.44146883763752    2.01547626160463    1.52624418051785
H          -1.25759290253142    1.45395351112373    1.49625588363526
H          -0.19087157958174    2.19323684063128    0.59820794462352
O           1.26263669352384    0.30087101849820    2.12189845848003
H           0.71384738069234   -0.54958652473328    1.95002569651620
H           0.55604419086572    1.09839831496547    1.98326124349206
O           2.38442302740033    0.40338286965131   -0.11376314284806
H           1.94794232276917   -0.41708589365109   -0.43993682975860
H           1.88049092663107    1.13931849533888   -0.51154898632323
H           1.88088596273466    0.37015526409421    1.27311010766130
N          -0.41676796073089    0.25656049210248   -2.52308670559369
H          -1.01795424053440    0.40196448790646   -3.32496207047683
H           0.37579115916043   -0.30053848895881   -2.82063748989757
H           0.10283676820185    1.47892919544840   -1.61718575574516
H          -0.92482394223464   -0.32346282464791   -1.85315639822413
