    26
        -50.46147058  Gyration_radius:  2.59177283116 Dipole_moment: 4.225
 S           0.26520607587924    0.18331238777733   -0.67275927597004
O           0.82330534646722    1.52876207027276   -0.89335189970529
O           0.53208823743652   -0.73409936525767   -1.75410377663706
O           0.66793012247857   -0.31330417086322    0.63550682658985
O          -1.28543379459521    0.43387463868073   -0.58964648142681
O           2.72810020639964    2.19322637636963    0.90169109077449
H           3.48100870254637    1.60584345538595    0.82062700601040
H           2.13458760088689    1.97396379184365    0.15582426187290
O          -1.76856849427194   -3.54741105512124   -0.45700153714260
H          -1.81862322188459   -4.44583173874839   -0.78671827864014
H          -0.81612143375256   -3.38059224665027   -0.25584455025505
O           0.79591070745104   -2.88104913343952   -0.17025530190658
H           0.83018614816837   -2.21015068336915    0.52711003234585
H           0.87731849999203   -2.34078549727516   -0.97380393113322
O          -2.03346012466457   -1.45888872278157   -2.10584233753765
H          -1.11733721970296   -1.43882614054884   -2.42228877921051
H          -2.09421678882504   -2.24682065654665   -1.51642951800922
H          -1.71840645177418   -0.28194645666658   -1.16049915748164
O           0.71168791231463    1.49560926685635    2.53578217890876
H           1.57912650453230    1.86042395030960    2.26524192064993
H          -0.20354751109712    2.29651102583222    1.67022079933182
H           0.65607356460915    0.66326513211350    2.00943853630708
N          -0.71703079247301    2.70924344857442    0.78737521114886
H          -1.61452294256175    2.24577873262130    0.65431866477337
H          -0.08664780812151    2.37026259369470   -0.01776410823867
H          -0.80861305544242    3.71962901693797    0.81317240457235
