    26
        -50.46248948  Gyration_radius:  2.47995814745 Dipole_moment: 4.743
 S          -0.87142391091540   -1.77610208503113   -0.28183448049838
O          -0.35097717620682   -2.12402504583628    1.03921022662399
O          -1.79122483016058   -0.64781621502230   -0.19666440781200
O           0.18606212412895   -1.58941024829696   -1.23955171968041
O          -1.73786601279683   -3.00977869187812   -0.76362057388044
H          -2.42488497734701   -3.04539508497585   -0.10583201692993
O           1.61235664996911    1.40036963140958   -0.58113688980067
H           2.32676060739903    1.99941686605611   -0.80018039932244
O          -2.00925201062886    1.28218544766934   -2.04217257229937
H          -2.11804107851967    2.05202004743485   -1.47940321044032
H          -2.04332846768132    0.51211106808795   -1.44088759039896
O           0.58971793417870    0.69325058275166    3.14787613093367
H           0.04065173371698    1.13623780878419    2.44859695987137
H          -0.00646817717257    0.09605059455883    3.60390632277817
O          -0.69341663503313    1.49876717896993    0.99138565036245
H          -1.16242477642490    0.72090878988165    0.62868341869200
H           0.05426362363368    1.65658837566934    0.39426224656814
O           0.50866177717611    0.58520406339771   -2.74140206542384
H           1.20854429458005    1.10817331082411   -1.46589842686493
H           0.42480201726611   -0.33130085318920   -2.41516809546118
H          -0.40390063384652    0.93799713326373   -2.70653247399975
N           1.76425108537375   -0.63867278301601    1.19520389280599
H           2.65237834517958   -1.12080660628359    1.27837606300772
H           1.49933863028192   -0.11175083551652    2.07713173651519
H           1.78042382714072    0.04883831386364    0.40640381932114
H           0.96499602670802   -1.33306074359904    1.04924845532682
