    26
        -50.46221884  Gyration_radius:  2.46290375259 Dipole_moment: 7.157
 S          -1.63235445213697   -1.06278786752112    0.47747489112696
O          -1.10545758472701   -1.44601322234321   -0.83194567902254
O          -0.71350620067855   -1.50020841811127    1.52991069024755
O          -1.98931927773982    0.32395473932120    0.55739285520720
O          -2.95557737550400   -1.90005656225529    0.68414094116300
H          -2.62678092101706   -2.79130439471628    0.64583152075614
O           1.89112269797373    1.28963172254067    0.29786169335868
H           2.52422811860011    1.93973222325157   -0.00870044124133
O           1.31784148832928   -2.08281339047812   -1.66774028323421
H           0.35764094214991   -2.03207913032904   -1.46777583379237
H           1.47361038490261   -1.35355448888032   -2.27504276772292
O          -0.42134562955480    2.34397013363173    1.59747796999651
H           0.45671154593143    2.01623814691424    1.36321137926273
H          -1.02568229121259    1.59510338933453    1.47038460922649
O          -1.53843254477450    2.69788485909266   -0.88821733935608
H          -1.12416435941518    2.94009909932791   -0.03880641551479
H          -2.19209289231152    2.03494070478287   -0.63489600695543
O           0.19121895067658    0.80112009782265   -1.58147808255966
H          -0.42040447111508    1.57399111771869   -1.49727004747154
H           1.24562205025916    1.14041719297707   -0.46318656484554
H          -0.36037290714600    0.03064155695233   -1.35178413679992
N           1.75949585170823   -1.32048998650363    0.83136707204748
H           0.74798936170448   -1.40818819234457    1.19221451817908
H           1.75235065422707   -1.71014232772731   -0.15285693919176
H           1.98458543491136   -0.30351272986520    0.77483002587176
H           2.40307342595948   -1.81657428258477    1.43760237125957
