    26
        -50.46837074  Gyration_radius:  2.47991261152 Dipole_moment: 2.833
 S          -0.19907399113889   -2.22201529501617    0.29081501667327
O          -0.91569041517544   -1.54895433684441    1.34937626410568
O          -1.01925971307277   -2.50923384115274   -0.86773508362218
O           1.04568779578449   -1.52640308126192   -0.03993461880718
O           0.26753264685472   -3.63278186049273    0.85368532151687
H          -0.53125953100132   -4.14122446776461    0.76619742546829
O           1.36611018989710    2.25073187598429   -0.79648893241798
H           1.90578668074104    2.86870489796294   -1.28971805885629
O          -1.77666369502118   -0.16674310046124   -1.66870728639165
H          -2.63357169154722   -0.25600519786592   -2.08938655838239
H          -1.53611166201555   -1.07026789677353   -1.34204894308416
O          -1.36108304104757    1.99516414041201    0.01614122370300
H          -1.59349353489450    1.23939988787466   -0.54988275735137
H          -0.49250297182714    2.29223850882145   -0.28706681112902
O          -0.83958954559528    0.89496891704877    2.38853056473605
H          -1.06244692854640   -0.03476417720099    2.18393036168757
H          -1.21465332212647    1.40937521304791    1.63632119542113
O           0.90886076388849    0.10056364070063   -2.17890793441138
H          -0.05478576412859    0.08900055131708   -2.29436081475618
H           1.22293580133113    1.45792249019940   -1.39524143667890
H           1.07889065724304   -0.60366166317613   -1.52400750256912
N           1.51842268368212    0.63139642768286    1.38169430363540
H           1.61807725214786    1.36969479503667    0.65872184612922
H           0.58458374598569    0.80306274881523    1.92425690779001
H           1.39147720937432   -0.28981429356361    0.87562922883060
H           2.32182037019924    0.59964513666840    1.99818705876133
