    26
        -50.46245830  Gyration_radius:  2.53052101719 Dipole_moment: 4.467
 S           0.79925949343880   -1.52312195725920   -1.44623891419682
O          -0.49507266903073   -1.57317018072345   -0.75013457628164
O           0.63002971046983   -1.44208733553226   -2.88009225409679
O           1.64201086649604   -0.48783900003813   -0.89426506921486
O           1.51001590005262   -2.90568104743081   -1.13834641653278
H           1.04854959553854   -3.53428480476370   -1.68604460059647
O           0.24521693656414    2.02461652989939    1.44010906926358
H           0.86557496600369    2.75222478184405    1.39100188521059
O          -2.19868377356947    0.88647537224611    2.06900095165538
H          -2.54595274410670    0.96335954518064    2.95876380639735
H          -1.38269313117110    1.41043465035999    2.04292269436516
O          -0.74470198614588   -1.53402671744651    1.93890268594365
H          -1.39577332253430   -0.81716276251496    2.00556232999764
H          -0.70782844189023   -1.75651157037505    0.99282220090798
O           0.57665042786718    1.17846522107139   -2.89052742361711
H           1.45144796138427    1.30623034548650   -2.51100945424646
H           0.55170158674020    0.21444412894562   -3.09418564765970
O           1.53956756516909   -0.14570863324392    1.75330312178724
H           1.73827605573756   -0.33784292487054    0.81460002946592
H           0.80593245118819    1.19234717073312    1.63666685294703
H           0.81561247766021   -0.76694691743102    1.99456728382140
N          -0.96971955967878    0.99854686603866   -0.74726342697364
H          -0.44972908165693    1.23094720274913   -1.64089722115383
H          -0.49512260837934    1.45109097722890    0.07254344396112
H          -1.94778553832346    1.27043190471801   -0.77576483339811
H          -0.88678314782661   -0.05523086486980   -0.65599650775918
