    26
        -50.46627187  Gyration_radius:  2.44594260039 Dipole_moment: 6.893
 S          -0.58684072065844    1.81400350781033    0.57453860190932
O          -1.36392639828985    0.58233764567478    0.75346975353665
O           0.17719324145760    2.18497062319934    1.73063904656928
O           0.16843659063472    1.74015324612155   -0.66778417771835
O          -1.65635365161135    2.96808922713623    0.37089428173956
H          -1.49897173731723    3.47906064439753    1.15674051947289
O           0.63274301421123   -2.40679445366124   -0.38492179867686
H           1.21133954807512   -3.12101518142394   -0.65270239260547
O          -0.26832890897300   -1.49091262243122    2.18929631840317
H          -0.76472413489905   -0.73839552176928    1.82947937382687
H           0.00600633941492   -2.01659761721310    1.42648003330218
O          -0.44816749576969    0.75532538693132   -3.00870697635295
H           0.39818375804339    0.61782774674639   -3.43933376073932
H          -0.25072711324633    1.29744432252882   -2.20899093641067
O           1.91069851044159    0.16457997795297    2.32037911629243
H           1.24366394756666   -0.51177039490178    2.54330384233215
H           1.41210324544208    0.99736769318163    2.26918135750744
O           1.97721698271845   -0.22333307873696   -0.28071698836614
H           2.16266497303465   -0.11458809990326    0.68788306807692
H           1.21072861382444   -1.57455509684124   -0.34728088966683
H           1.41078322157708    0.53842283625323   -0.49690265347762
N          -1.43704333643580   -1.00990202359770   -1.29109570498399
H          -0.70450412933956   -1.71788653424794   -1.04561576945030
H          -2.33753749187602   -1.44275445944028   -1.46370939667490
H          -1.49186729564358   -0.34113595930365   -0.45546079515310
H          -1.11276958187914   -0.42994182484179   -2.10906309262460
