    26
        -50.46245824  Gyration_radius:  2.53050696198 Dipole_moment: 4.467
 S          -2.07649025575208   -0.31164222357725   -0.80105984931267
O          -2.43665316204490   -1.36754047615900   -1.72110358591347
O          -1.53417312385243   -0.84987786795103    0.45530443756084
O          -1.18927345150525    0.68031410858188   -1.36282302440981
O          -3.41481039016649    0.44039940968113   -0.40776489305871
H          -4.03806603151787   -0.26080699263086   -0.24072160118498
O           2.24056046897281    1.10034167254585   -0.03112540272320
H           2.71008823810605    1.53598781043080   -0.74274318347096
O          -0.52997059566431    0.69601952648693    2.42924279336007
H           0.31695231122801    0.23629752856535    2.54598289285692
H          -1.05739362383727    0.11488342463003    1.85475570194574
O           2.09400292027787   -0.34941317564278    2.32275561450249
H           2.33441915105110    0.25235857839620    1.60088256719750
H           2.55621220178157   -0.04042201331997    3.10320110924834
O          -0.06303190189356   -1.43423465084024   -2.83075609873841
H          -0.06059178246753   -0.52179365700333   -3.13589119324275
H          -0.99349851321239   -1.57780348178511   -2.53918421180622
O           0.03469481032374    2.30882818417593    0.36549383658413
H           1.40263213811986    1.66226985147310    0.13579463572587
H          -0.50756541709753    1.85608301827240   -0.31165391582143
H          -0.24646079638707    1.91690962266576    1.22319579404914
N           0.91532667752720   -1.23137504152038   -0.37757872730496
H           1.46808083702981   -0.34337297775193   -0.28788756376409
H           0.68326705287993   -1.41266571829697   -1.39559725693086
H           1.41857192804407   -1.99904921367993    0.05687422168259
H          -0.02682966993900   -1.10069524574139    0.09240690297251
