    26
        -50.46753434  Gyration_radius:  2.5180620019 Dipole_moment: 2.748
 S          -0.49655740484251   -0.71414121237971    1.63550951446208
O          -0.41394704820112    0.22529085994384    2.72851557709475
O          -1.21855644331352   -0.15029926037727    0.49315961437229
O           0.77115950368647   -1.28599213969472    1.23853509248792
O          -1.38761004418468   -1.92639792033803    2.15873200836464
H          -1.97410880129740   -1.49219439698287    2.76931850109389
O           1.98453323399734   -0.22687123755819   -0.92162640069212
H           1.80806275515197   -0.70249425095742   -0.08952752715571
O          -0.36491120260826   -3.16699146063042   -0.30698654202972
H          -1.07170498258501   -3.51494815475167    0.23872324420593
H           0.14920586607547   -2.58498289511933    0.27991970788762
O           0.76477588765225    2.54891757481316    2.18430396149775
H           0.27831585345995    1.74050652062065    2.46024619101861
H           1.56092567447175    2.56711191676386    2.71764960895007
O          -0.49748647598199    1.66663147645481   -2.90955343682087
H          -0.94156031380914    1.78587416875025   -3.74924815657864
H          -0.49526570477757    0.71227994737642   -2.73352956434676
O          -0.45427842228721   -0.97738320490266   -1.95415667710309
H           1.33887137248242   -0.60030907165416   -1.55058227704660
H          -0.41084827987673   -1.93852817297966   -1.84144260847884
H          -0.86112112718602   -0.68162480814437   -1.11543379089676
N           0.39169085403225    1.78312185586378   -0.35129054737537
H           0.08796527512042    2.27589324758396   -1.19627447480629
H           1.19278202384299    1.12875564396317   -0.60798259885776
H           0.63724712257024    2.38268255289994    0.45758268831469
H          -0.37757917159345    1.14609242142668   -0.03456110754836
