    26
        -50.46147057  Gyration_radius:  2.59139358874 Dipole_moment: 4.219
 S          -0.50966420504497   -0.47666565728029    0.26429067505873
O          -0.41217114028371   -0.94916117534148    1.65622035982654
O          -1.76127558881906   -0.81257394294392   -0.37052870341136
O          -0.17420994916490    0.93865840046183    0.19527156752541
O           0.65325906615482   -1.24048695257965   -0.46953501036052
O          -1.89366886569652    1.43996242313688   -1.81751740424396
H          -2.20694191638354    0.62609918856555   -1.38886994321625
H          -1.18526082423979    1.72140151000926   -1.22048758661444
O          -0.22890560596907    1.06308209939431    3.44757773222806
H          -0.40769570447374    0.29561478395132    2.86820924747263
H          -1.02450622155401    1.59704738460316    3.43042403273708
O          -0.70985117296224    0.29571694242990   -3.91290954601116
H          -1.27792959743424    0.39178324695085   -4.67873775182756
H          -1.12645931769338    0.82780535156742   -3.19261903234947
O           1.78134708907580    1.68600974337164    1.77667754775619
H           2.18714775580150    0.25011437767444    1.80449226886833
H           1.12099135307407    1.59672490792905    1.04933666643181
H           1.21465766635445    1.72784500465925    2.57407139236398
O          -0.64564029887988   -1.98482228228458   -2.51848131619235
H          -1.42554490135794   -1.81193349728714   -1.96928650138371
H          -0.58692773328386   -1.22497611313032   -3.14392381598033
H           0.25974523044447   -1.59038791106725   -1.33483943541593
N           2.15113540072278   -0.85027308773513    1.76537675523671
H           1.09326373117517   -1.04257885059706    1.82902913998686
H           2.67526429280239   -1.29552906546754    2.51177848332111
H           2.43984145765015   -1.17847681899320    0.84498016817096
