    26
        -50.46877068  Gyration_radius:  2.51431048587 Dipole_moment: 1.696
 S           1.17675349220624   -1.10808010366890    1.05605075919001
O           0.01335681831252   -1.66275220011810    0.38632919493221
O           2.21580459360401   -0.65412176365803    0.15685807330938
O           0.80150314392976   -0.08927626622529    2.03108605750897
O           1.79476372467464   -2.31202229541891    1.88078531912842
H           2.65298201967820   -1.98996942952779    2.13861666210565
O          -1.17250893581143    1.80393842012115   -1.19886687411878
H          -0.88625194089719    1.33060584392472   -2.01026154130743
O           1.18269773612834   -1.66549171887291   -2.06817182839329
H           0.53065841306686   -2.12780219369749   -1.52874922449510
H           1.75856224027011   -1.25002125607771   -1.39911214350638
O          -0.22807081709258    0.29780754808392   -3.19816898598197
H           0.28823406645729   -0.45325208712845   -2.81908469787300
H           0.29445915498897    0.63944531064132   -3.92440988700179
O          -1.56431801631872    0.79982770690929    2.82206046217972
H          -1.41687254913332    1.73615278912354    2.97075859709389
H          -0.67362925378361    0.40841794252296    2.68704632474120
O           1.09565431259271    1.85698176257095    0.23395354217832
H           0.96882528315957    1.28921816722497    1.01508682388826
H           1.80083244277305    1.41191976318487   -0.24758224270774
H          -0.34439309955299    1.99874016918381   -0.70747254190780
N          -2.08815183473973   -0.06100331417501    0.34114769788896
H          -1.80005170786666    0.73894922866260   -0.33927516801214
H          -2.97328599642944   -0.47951664564921    0.07865377050325
H          -1.31562978399889   -0.77527236452860    0.32560213524072
H          -2.11192350622291    0.31657699658459    1.31711972541969
