    26
        -50.46132374  Gyration_radius:  2.48134553448 Dipole_moment: 7.432
 S          -1.84477799467201   -1.19348161505710   -0.44124117349344
O          -1.13616013361963   -1.39054917133258   -1.70772026391559
O          -1.61065477082047   -2.25225210201621    0.50486907665205
O          -1.59756595972378    0.14526383550265    0.07583796556832
O          -3.39204323000772   -1.24917846404158   -0.78678085683048
H          -3.59070440518589   -2.14789971346511   -0.54765362474077
O           2.34603081102708   -0.46677527628414    0.23260794482445
H           3.16622603028553   -0.94385193216568    0.36228071914254
O          -0.48247699837611    0.71353022306230    2.54288699120411
H          -1.07201330897587    0.58848745573824    1.78343770695607
H           0.19756163523239    1.34448703416263    2.24137327161508
O           1.42057971687867    2.08530219967544    1.08831467076451
H           0.83791189152606    2.27481455904356    0.33979668082973
H           1.90181357727166    1.27827769826966    0.85891913647934
O          -0.40758851239132    2.13803582038027   -1.07714565676393
H          -1.03747357054698    2.83174122210977   -1.27590586279514
H          -0.92019668790684    1.41882892309893   -0.62163033136005
O           0.64554132219981   -1.56817723796463    1.77211476137629
H           0.28400503512059   -0.80018871333681    2.27665709404542
H          -0.13642043390322   -1.95324839853508    1.33236703037156
H           1.66532415211386   -0.92578301551995    0.84249998119319
N           0.97826921868701    0.02000280108827   -1.98283552583963
H           0.61910515858171    0.98361206943314   -1.85856746495174
H           0.10684577134646   -0.62280912449610   -1.91119026350569
H           1.44901234232147   -0.09621427597789   -2.87312831382543
H           1.60984933353777   -0.21197479137123   -1.17016369300091
