    26
        -50.46469910  Gyration_radius:  2.37626241466 Dipole_moment: 3.546
 S          -1.32059673023212   -1.31369799361133   -0.10906959016620
O          -1.19728872596697   -1.12327448106961    1.32262465976805
O          -2.30252964194884   -0.44032287705447   -0.71977455000808
O          -0.02728652389346   -1.28451115649143   -0.77027086769589
O          -1.85677170410889   -2.79478762931981   -0.32104654497251
H          -2.76505804528230   -2.73409433296664   -0.04265586929347
O           1.16622827308310    2.01943928646945   -0.43354607288819
H           1.78183057187294    1.39297250652535   -0.86719091610365
O          -1.74171179079182    1.72958201702372    0.85847474074294
H          -2.12315609014731    0.95115040421623    0.42857851379208
H          -1.72437792378503    2.41431306238076    0.18562016750927
O           1.78895339773405   -1.69748610227660    1.11805692286564
H           1.47444981161485   -2.39492431965304    1.69542688713124
H           1.12045354990081   -1.63525032172237    0.39864529097817
O           2.33472083086739   -0.15083582431373   -1.51856991788316
H           1.46936425497007   -0.58822643391034   -1.45704445662849
H           2.91000848455020   -0.64968153141312   -0.93374944361304
O          -0.87443422806559    1.37061078971665   -2.07190066446721
H          -1.45036156837748    0.70779554378333   -1.64177617514815
H           0.35823706539997    1.96722067114190   -0.98689002615749
H          -0.41446230417620    0.90378339449462   -2.77226124026079
N           0.69031192857257    0.68364721159160    1.75372722993361
H           0.83224052008583    1.32179050032294    0.88970763473391
H           1.38789754129848   -0.08535612226124    1.72645322157501
H           0.72167799252218    1.22544710654243    2.61006204094720
H          -0.23833898570899    0.20469665186341    1.65836904530586
