    26
        -50.46469902  Gyration_radius:  2.3766459741 Dipole_moment: 3.544
 S          -0.29384899461656   -1.81774174766325    0.30677142810931
O           0.00319610692052   -2.21268783553235   -1.05549038648571
O           0.89253296567461   -1.56259530922817    1.09972469753297
O          -1.24878941569354   -0.72676135811368    0.39936849916772
O          -1.02357274716537   -3.06049956152036    0.97626234276043
H          -0.45905680785583   -3.78976325492042    0.74037550393620
O           0.27456264576776    2.03802566703954   -1.18031669472111
H          -0.59797470181770    2.21519881859009   -0.77190524138950
O          -2.08508512936100    1.84970261727789    0.10398869223353
H          -1.95797392813887    0.88651026718300    0.09719703038544
H          -2.07392537999623    2.09794853132122    1.03140446364208
O          -0.59205795656096    0.66983559683374    2.55677021350205
H          -0.38244911415867    0.05776943408889    3.26389131135354
H          -0.89788614851554    0.10792380226895    1.80912099648504
O           2.15476049865623   -0.53973517301890   -1.35348670065422
H           1.96204943389315   -0.18932090333983   -2.22640250629633
H           1.55304349114987   -1.28806219687676   -1.23446977464010
O          -0.64285057754625   -0.09411196434810   -2.55273373532752
H           0.09065003392267    1.30533351215341   -1.80556991122433
H          -0.43932937470654   -0.91674307552081   -2.06507416880423
H          -1.59170880465066    0.02631495192963   -2.48043378970414
N           1.49473035281440    1.00647431439935    0.87938856824714
H           2.43571728312852    1.34646783151809    1.04295000218235
H           1.08453827438232    1.43256612232214   -0.02838976751230
H           1.49602941106035   -0.03815772544663    0.78025322020495
H           0.84469861341117    1.19610862860693    1.66680568702055
