    26
        -50.46907332  Gyration_radius:  2.47654727022 Dipole_moment: 2.898
 S           0.58224154366376   -2.14090875795072    0.24967778649396
O           0.36121819653793   -2.46311232753112   -1.13996680217648
O           1.89284104553676   -1.54808193065253    0.49144600928757
O          -0.48227999904998   -1.34324181797315    0.84111997243209
O           0.56356660121405   -3.51934325697413    1.03591618255980
H           1.12588414503633   -4.04986641540845    0.48197352994688
O           0.79409512776967    1.95657654966523   -1.30759776413202
H           1.17871785357872    2.46591783614428   -2.02164543203852
O          -2.38687388532568   -0.36477899441624   -0.68071877394460
H          -3.17632598854518   -0.90000949324529   -0.59376005471405
H          -1.70014407975300   -0.78682102625046   -0.11095922905055
O          -1.60102596087635    2.13135359912896    0.22384055903455
H          -0.82921520451648    2.27048139133447   -0.34286907896255
H          -2.05373754140302    1.35376014947806   -0.14235471337654
O          -0.48998417909420    0.92200113442540    2.32690553584172
H          -1.02332270521710    1.47626462692720    1.70864814509330
H          -0.63796877278359    0.00706734673639    2.02799436674369
O          -0.20793830780461   -0.18606440957369   -2.35835295818263
H           0.11769212020419   -1.04844983929174   -2.02430780290824
H          -1.13230974992591   -0.15971940881232   -2.06614770940455
H           0.44493048295098    1.11427250247580   -1.72930570695260
N           1.75913371983041    0.98349448362746    1.03157275985820
H           1.88607321667010   -0.05584454630884    0.82762284410852
H           1.52410425497194    1.45597750593979    0.13549321253347
H           0.89868712581375    1.05273183759724    1.68108839425470
H           2.59194092051651    1.37634325090885    1.45468672765390
