    26
        -50.46038064  Gyration_radius:  2.6352368279 Dipole_moment: 1.993
 S          -1.16909906268658    1.31914897771736   -1.03006737734780
O          -1.09249396449949   -0.11715768418947   -1.24503739222876
O          -2.48465139230978    1.78223909115098   -0.67386428120498
O          -0.09154525752090    1.78788521844371   -0.17451432880307
O          -0.85657375842477    1.98496689111342   -2.46247075394163
H          -1.72775329436466    2.17181092857845   -2.79735037656515
O           1.44787450671495   -1.17147270284696    1.93808355673458
H           2.15784089614608   -0.84557541078355    2.49297871249734
O          -2.99085121892936    0.19989480321679    1.41734478935151
H          -3.66686666127943    0.66107101988996    1.91865445842420
H          -2.87172508889036    0.71356373112096    0.59387021125979
O           1.95854405287215    1.47027927119746   -1.81067949957014
H           1.58414375821457    1.72015908252240   -2.65802628139061
H           1.29056852738004    1.75462683989077   -1.15088994357005
O           1.38150103587471   -3.47542556035735    0.21750981714055
H           1.40904606888198   -2.91321916274380    1.00463070455886
H           0.58960244366781   -4.00932887634471    0.29615788613957
O          -0.43485423131738    0.57969987215853    2.20847903409580
H           0.66682112993397   -0.56924147174966    2.12194988485267
H          -0.24878358251247    1.14830909028533    1.43909295397785
H          -1.36071387146840    0.29401076496382    2.07829693901664
N           1.32564378219938   -0.90758663047765   -0.75873475163102
H           1.86327838567000   -0.16413856539263   -1.24805358759442
H           0.29911370909718   -0.68594811133695   -0.94656782182951
H           1.54661320276353   -1.86413357233839   -1.04521055127305
H           1.47531988479263   -0.86443783368195    0.27441796890384
