    26
        -50.46934665  Gyration_radius:  2.40555133354 Dipole_moment: 4.748
 S          -1.38448538745348    0.78901616587936   -0.11844523415552
O          -2.39805760570333    1.20369914000675   -1.04849952111492
O          -0.23931848964888    1.71578229819751   -0.06613451026732
O          -1.98767411713974    0.74287884268260    1.32045408726056
O          -0.90665574507017   -0.56848284505752   -0.41191456403282
O          -0.89371043525221   -1.95759516355685    1.82417371900006
H          -1.54931197153092   -1.53005404258137    2.38009838453294
H          -0.99663163501210   -1.54363032684879    0.93866179955393
O           1.64749360000101   -1.26490954438805   -0.72400745766621
H           1.95001181778395   -1.19526366704429    0.19432918542895
H           0.67226922439477   -1.23112913167573   -0.64722203053547
O           1.61001357622487   -1.12793579860590    2.08037977787983
H           2.09340644007198   -1.61942748613667    2.74586672664752
H           0.71283213050522   -1.54414645770600    2.02263216376003
O          -1.16648287609697    0.23573127267201   -3.17028716684137
H           0.33970812487843    0.64119714160970   -2.70212699430927
H          -1.30120453069897   -0.70328852321711   -3.01707281551679
H          -1.73026430750830    0.67782230777979   -2.49337946318245
O           0.27384798858718    1.24928231878470    2.48649261784056
H           0.85054223754871    0.46416091431402    2.44077914256691
H           0.38769299081326    1.70563245091389    1.63625357258532
H          -1.21857158231977    0.93102192802569    1.92657191964409
N           1.15223762194522    0.92917964236211   -2.08819004667509
H           0.67762040333448    1.41661786276899   -1.26678188837083
H           1.81597678036095    1.52270214046861   -2.57258641941232
H           1.58871575698277    0.06113857036859   -1.67004499462837
