    26
        -50.45471691  Gyration_radius:  2.51433469833 Dipole_moment: 7.509
 S          -0.03299268844460   -1.99941995324134   -0.68107215985106
O          -0.11336264840522   -1.20974640947210   -1.91071960730071
O           1.29335385417638   -2.19480295560521   -0.17632872909854
O          -0.98670323469681   -1.48662891029323    0.30623525511990
O          -0.57531346394121   -3.44432559598425   -1.07629858936083
H           0.13050509072237   -4.01982946400340   -0.79926750018924
O          -0.93440049513868    2.24921118339418   -0.39417720573687
H          -0.91530093200786    3.18365935212076   -0.60265442552155
O           1.68060277504332    0.71544971171992    2.95701749232145
H           1.82606534325331    1.58381326681118    3.33436343555922
H           0.73160464169704    0.67337850090400    2.71053554316876
O          -0.83105940822091    0.68840033812506    1.97262078384051
H          -0.86040720550047    1.34468983150316    1.26203650761359
H          -0.85505060213343   -0.17956882660786    1.53858939264692
O           2.67597289938335    0.08537805697484    0.48923567925542
H           2.42921045138837    0.28608661301529    1.41263049135952
H           2.35440210369099   -0.81520173694640    0.32241587956011
O           1.14787918509750    1.13894361487106   -1.35346159920872
H          -0.05853404047274    1.86388673219178   -0.74578992351370
H           1.81692655421208    0.87819866583099   -0.66512724485288
H           0.83743554028032    0.29298528155482   -1.71594869658801
N          -2.20708770406738    0.09750872540684   -1.25786987373133
H          -1.90292570787225    1.06750245934462   -0.98393118852895
H          -1.47359872020027   -0.31406699220778   -1.89628333010849
H          -2.02465211310601   -0.53978681315758   -0.42656536000631
H          -3.15256948480141    0.05428532378786   -1.62018500684813
