    26
        -50.47071301  Gyration_radius:  2.41589256884 Dipole_moment: 4.166
 S           0.20522416530003   -1.79259230889040   -0.92523230695506
O          -0.03844898359318   -2.10528185624291    0.48447536895880
O          -0.96485207769475   -1.19573743664450   -1.54796531116604
O           1.42158757567950   -1.03810512010877   -1.10781527284771
O           0.42777329590974   -3.18051467683382   -1.65376084264714
H          -0.45187812561729   -3.54119199935253   -1.67902539910097
O          -1.62730628698585    1.53414135120561    1.17999921791419
H          -2.29006966323708    1.95982094997804    1.72482387749052
O          -1.08932059197844    1.50052218036743   -1.64813960319046
H          -1.09280759603090    0.52967453169712   -1.75240191049962
H          -1.42690870448601    1.67260914304975   -0.75904467395530
O           1.53112957365554    1.61413896165638   -1.32794206701746
H           1.65774625434706    0.64828304499706   -1.42229851595105
H           0.60658406551828    1.75841001654015   -1.64097954122781
O           2.00815767313504   -0.90712556801784    1.56316908991002
H           1.21953448690337   -1.44312296283661    1.31431776473601
H           2.57228415619535   -0.98567674320092    0.78560051467765
O          -2.35553386317007   -0.91470661041471    0.70924341591217
H          -1.93478364810718    0.58786448861873    1.05828925558609
H          -2.33901805678132   -0.92732909784243   -0.26049412685588
H          -1.56626057040557   -1.45155535768410    0.92198611347992
N           1.10509874105364    1.55388169860166    1.22303234229736
H           0.07229787192502    1.58534440384179    1.32285042161601
H           1.34072620166743    1.68536018918366    0.16528509051207
H           1.54554365241991    2.26793174575860    1.79204368896223
H           1.46350043436573    0.58495702257947    1.47998338936642
