    26
        -50.46173144  Gyration_radius:  2.49823807943 Dipole_moment: 7.267
 S           0.60580304602211   -1.18934577132698    1.95171816934261
O           0.68202112777312   -1.67331897807962    0.57232769906829
O           1.65728814547995   -0.19489877852102    2.18905567629700
O          -0.70300062293842   -0.73897380535794    2.32442618887527
O           0.97157063544113   -2.42395134058390    2.87159175455969
H           1.85863969337454   -2.61582378971431    2.58663229406331
O          -0.74354936864006    0.19913664607232   -2.45507098776731
H          -1.23884519372244    0.12787152033021   -3.27144537391009
O          -2.60238141142766    0.38733108916203    0.80710124616899
H          -2.08335745836534    1.13299349600313    0.47916967965229
H          -2.06703997681935   -0.00091901846896    1.52289499290822
O           1.76248335526523   -0.47359922430425   -1.54762258359933
H           0.96947723954588   -0.30393219939138   -2.08605978739381
H           1.46306833817745   -1.09528392519220   -0.85033691197994
O          -0.85488836644979    2.16380412830750   -0.65728558636137
H          -1.30453973608332    2.92832479251858   -1.01918926540156
H          -0.84678521865984    1.47460336241960   -1.36527682453274
O          -1.62371174775075   -1.52698990811327   -0.79570439945010
H          -0.83405330232348   -1.73058452101169   -0.25648442231413
H          -2.17990134720033   -0.95365951079116   -0.22188635670538
H          -1.11338063820101   -0.52895963431584   -1.84207447376464
N           1.65236831561616    1.44191839551550    0.21362596426696
H           2.37574304479389    2.15004388222008    0.27130131374579
H           1.82554786908984    0.74871531376842   -0.59050237457850
H           1.64900556278805    0.82849251020846    1.10221415589887
H           0.72241801522785    1.86700526867037    0.06688021288784
