    26
        -50.46892535  Gyration_radius:  2.49139130411 Dipole_moment: 2.541
 S          -1.14584236431994   -1.72236142261812    0.19360714059197
O          -2.16064551096180   -0.77282865714421   -0.22228819644436
O          -0.05966254396696   -1.81258554523182   -0.78747719005966
O          -0.63539085685462   -1.51475932126898    1.52574373993256
O          -1.86253275891567   -3.13466360462200    0.19202128761490
H          -2.50614938155163   -3.02747511786251   -0.50059576063421
O           0.52889092512761    1.68745350274464   -2.01977270732116
H          -0.04890511219110    1.06693730268382   -2.51910068939064
O          -1.09810947016662   -0.31493625374484   -2.74546156630029
H          -1.90398961118476   -0.10407425991506   -2.26137142412855
H          -0.65531113965057   -0.97181615052037   -2.17542044825763
O           2.19554391852807    1.24416632758050    1.64466086807864
H           1.41311759143693    0.98489527065738    2.18208157312994
H           2.06268483956324    2.16917615259263    1.42556493170368
O          -0.08840286145224    0.62306408833499    2.88494594124589
H          -0.15051684607099    0.40582468102394    3.81635565897436
H          -0.32161384427789   -0.20663850715554    2.39778260213038
O          -0.85537631352434    1.50812313635120    0.29060641070787
H          -0.72712220804960    1.50349556310692    1.24475998388569
H          -0.00376954484770    1.92403823298641   -1.23821598507706
H          -1.42228540011687    0.73708593804777    0.10266382733892
N           1.91565379529963   -0.06566507484279   -0.68331478022124
H           1.20088664055433   -0.83636960034286   -0.62293507869863
H           1.46822587641454    0.69324100280938   -1.30944273459513
H           2.08149684859253    0.35520438792344    0.26526607266044
H           2.77912534259171   -0.41853207156892   -1.08066346687101
