    26
        -50.46173145  Gyration_radius:  2.49823830052 Dipole_moment: 7.273
 S           1.46261216014493   -1.58161998539691    0.97478948186406
O           1.06134534629373   -1.51118174916449   -0.43115121650231
O           2.38508980087564   -0.48445166575942    1.28489825701378
O           0.35360613090583   -1.67024127539199    1.87863692524284
O           2.31323506624224   -2.90783759393860    1.12297871337731
H           3.03827084377361   -2.73430423137980    0.53220816730186
O          -1.65452905319528    0.83320274093242   -1.78537972415617
H          -2.41356492030001    0.91883170464122   -2.36279352107934
O           1.07190161296875    0.60418326175794   -2.05150524143195
H           1.14909485171542   -0.27926760079165   -1.63209637990081
H           0.11764500703328    0.72580044534130   -2.20027217142917
O          -2.11337291380523   -0.65377103840505    1.63601967462211
H          -1.29710141980036   -1.10430752862016    1.91981775884596
H          -1.86366370198732    0.27186627855299    1.51852301538103
O          -1.31625333398157    1.93172364288344    0.61941435109291
H          -1.96525604807755    2.61983952466319    0.77095728857885
H          -1.49311348352230    1.56476603920220   -0.28082097247297
O          -1.59198626159639   -1.53605385730114   -0.84188162082650
H          -1.95193463741576   -1.37716334914455    0.05955403042991
H          -1.66038848106907   -0.13530712297683   -1.46191821204713
H          -0.63606419736983   -1.68978732282612   -0.70656458869059
N           1.40343111772866    1.67178914134620    0.30071875310838
H           1.82385891730537    0.81046324885645    0.79788907820300
H           0.44246336177690    1.84732215048003    0.63656647698349
H           1.99413267861579    2.48496448482660    0.43435905702185
H           1.34054154673402    1.38054162761930   -0.73294736054739
