    26
        -50.46147055  Gyration_radius:  2.59211366745 Dipole_moment: 4.220
 S           0.26598821633883   -0.47242789931093    0.51161799308143
O           0.72325563341597    0.04532019249748    1.81284650245562
O          -0.94293755516608    0.22527199163790    0.09657683406551
O           1.39707272228098   -0.02323949365535   -0.48484078803773
O           0.15410072182060   -1.91056092442100    0.47216947075590
O          -1.12259611450738    1.57521694833507    3.05517787218435
H          -0.45770911963579    0.94198303433952    2.71803040477003
H          -1.89947570791263    1.05458847590489    3.26456464624112
O          -0.47018930371870   -2.15336990478387   -3.32812907700668
H          -0.74636898058547   -2.93115716329599   -3.81513807035452
H          -1.12408088814780   -2.04009323395714   -2.59661253871681
O          -1.98342103240987   -1.92720596156079   -1.14594205749790
H          -2.00737906975426   -0.98552628085865   -0.92188642570168
H          -1.33634762213667   -2.26988250004465   -0.50717468307999
O           1.67046616534094   -2.21917404074500   -1.72700656260850
H           1.59972761024736   -0.82884585164670   -1.06432731678861
H           1.22954248091628   -2.60131573710736   -0.95281692069761
H           0.98750647675700   -2.19577036710706   -2.43761015807309
O          -0.98615305017922    2.78746677863200    0.66087886003497
H          -1.12214327872712    1.89250117741303    0.26917523795237
H          -1.23296954581217    2.64867361613940    1.59827985123199
H           0.50077949787893    2.69956584192393    0.75411626489788
N           1.52037729235064    2.31076730672048    0.90538931238604
H           1.33181361538483    1.37355062099926    1.40187051130290
H           2.10910409201252    2.93113840042920    1.45178097414450
H           1.94203673393710    2.07252497352013    0.00900987307462
