    26
        -50.45493802  Gyration_radius:  2.63752555801 Dipole_moment: 5.967
 S           0.72136613101137   -2.43248672756678    0.85955623538836
O           0.60234768290443   -1.92845346649931   -0.49432420968486
O           1.74176513338812   -1.66869383996721    1.59089482106970
O          -0.53531739215158   -2.50741850833072    1.56847822232856
O           1.27038584545144   -3.91811426989073    0.75653329371300
H           2.01449989287336   -3.83907502189284    0.16681360301149
O           1.30544726113376    1.29188177181276   -1.54876978770091
H           2.13702474033822    0.99473908467755   -1.91891319534203
O          -2.30620961852090    0.94202497390907   -0.79868906121297
H          -2.25497661140407    0.44713463553018    0.03202264877761
H          -1.81345023277242    1.76415831208622   -0.63955777963500
O          -0.51831377524303    3.07944177490712   -0.50131316217995
H           0.18449792907154    2.62263493010604   -0.98992200237434
H          -0.81085927552801    3.80326646555916   -1.05686153886178
O          -1.58404119629801   -0.16654130536072    1.63777915316978
H          -1.25711913956532   -1.10742974066996    1.57642898064649
H          -2.08729484642810   -0.11827803685655    2.45231716678527
O          -0.49495037882500   -0.32272609879836   -2.33376904838913
H          -1.29467961665158    0.04950582486528   -1.89977966960826
H           0.59353434054580    0.67107486885907   -1.94729223832282
H          -0.20219763936691   -1.05828614238998   -1.76454757522042
N           0.92427179739204    0.70313604788470    1.05439805841605
H           1.36689298508851   -0.25284045933605    1.29832957384829
H           1.08981546433554    0.91059021091474    0.03513289552515
H          -0.09416366078752    0.59043866532216    1.23629067909851
H           1.30172419001949    1.45031605114300    1.62876395675779
