    26
        -50.46600689  Gyration_radius:  2.60606565661 Dipole_moment: 3.838
 S          -0.24624624184761   -1.02207068915760    1.51409151857726
O          -1.31691377881873   -0.05611426016246    1.79635428467604
O          -0.64857343834071   -1.94033345357760    0.45707446970650
O           1.00511364305608   -0.34632395954101    1.22799205321777
O          -0.02524623597399   -1.85940520889828    2.81677339466049
H          -0.89611597548563   -2.27856542146260    2.96295180917671
O           2.18326382938676    2.03995042777286   -1.85291513859974
H           2.80671909702933    2.18527498229449   -2.56485203858287
O          -0.46892700445502    1.82397629528124   -1.85392590943178
H          -0.56846491750480    0.86028688448776   -1.97414658886456
H           0.47559684103826    2.01323249795290   -2.05033607960531
O          -2.56685200012202   -2.43009598203543    2.33123962779763
H          -2.21145417639606   -2.66091149481232    1.46198929265449
H          -2.65973460002609   -1.46822218962748    2.30643491681418
O          -0.46962269977383   -0.91283591538472   -1.92784802221264
H          -0.98372706957327   -1.47584926989196   -2.50885200560563
H          -0.55464422397966   -1.30605160104161   -1.02273089503807
O           2.20163734799092   -0.51626759149625   -1.18574606718551
H           1.94405301108653   -0.55343443609777   -0.24677549842101
H           1.41522826079971   -0.81826033923087   -1.66309486762291
H           2.30340630303612    1.09629344520659   -1.57211004637373
N          -0.14600458988278    1.96901335378041    0.71703027809314
H           0.73275640569348    1.44152620933824    0.84862424802361
H          -0.10693972620359    2.89427460104106    1.13039846506522
H          -0.36210071082526    1.99824520905523   -0.34735987958702
H          -0.83620733990449    1.32266791620529    1.19973866866576
