    26
        -50.46248951  Gyration_radius:  2.48012472085 Dipole_moment: 4.750
 S          -1.53798248394104   -1.06591099301105   -0.70374978989716
O          -1.30808429321055   -0.36567756256942   -1.96630515031531
O          -0.37002598571790   -1.85329903718232   -0.32696566400609
O          -1.99010533403166   -0.17071600962949    0.32802791300193
O          -2.69825555463740   -2.10841480829412   -0.97191534580058
H          -2.31211831152605   -2.67871728176656   -1.62883769515260
O           0.68842958120171    1.61341411880066    1.34792296533313
H           0.99465231456423    2.33263098781442    1.90124764157547
O           1.97803097644038    1.16785103622658   -2.33802666135347
H           1.76914740896004    0.60506209652806   -3.08613179582182
H           2.12382473718047    0.55179382104590   -1.57261470600576
O           0.48877987829501   -2.19246880731433    2.18868479711153
H           0.10250719839081   -2.19835849160697    1.29073088717369
H           1.43787600645973   -2.13215492270561    2.05915960354293
O           1.87487461153106   -0.37981339570718   -0.20721063386889
H           1.10444773624921   -0.97210395337395   -0.31746496703492
H           1.61365931726720    0.26906241481198    0.46453681908117
O          -0.85075576909014    0.09667530894527    2.71954363981315
H          -0.38035150050693   -0.76050657159501    2.76654073328946
H           0.08644437110958    1.04365231922426    1.93444890722193
H          -1.48281278173052   -0.01565864402775    1.98381810593311
N          -0.28094353686349    1.87245141752694   -1.16826191894339
H           0.63141438011118    1.80773791677533   -1.70579103885818
H          -0.05371908329553    1.81996313303562   -0.14819626022364
H          -0.80389466872298    2.71403673666371   -1.38359355544967
H          -0.82503922420060    0.99946920122197   -1.45959684041775
