    26
        -50.45602543  Gyration_radius:  2.61242360978 Dipole_moment: 5.406
 S           1.52079508363726   -2.01569842084453    0.58993404685894
O           2.16001987786233   -1.09718206901191    1.53968357483239
O           0.42423609704341   -2.74435384293541    1.20829951691585
O           1.15570696312167   -1.33941653290045   -0.62830900063398
O           2.61987811818205   -3.10019094934754    0.21605994443122
H           2.73182652311408   -3.59183472127896    1.02496099712645
O           0.83904597459501    1.75978318776766   -1.44629716608815
H           1.74323260998067    1.66976826581751   -1.74980559397011
O          -2.48714262824556    0.25284334422934   -0.76345103431679
H          -2.23485907167671   -0.30984366861562   -0.01659780914717
H          -2.25433779383931    1.15830517065454   -0.50036188875803
O          -1.42055274675028    2.79564349955553   -0.22450570255786
H          -1.95522247302740    3.43622122508785   -0.69575237097268
H          -0.63194786159983    2.64245477722245   -0.76751396247558
O          -1.36431730337090   -0.92170696150052    1.48889937022424
H          -1.86370308935413   -1.15931429664129    2.27220802428445
H          -0.72764708424057   -1.67471093354379    1.33425802413673
O          -0.44306156091288   -0.20540055878313   -2.45988629310869
H          -1.30184537884037   -0.14254996028826   -1.98749143204091
H           0.32670902319048    1.02272170502249   -1.93083267444765
H           0.08751520394463   -0.84485593149155   -1.95391146737638
N           0.61462576292214    0.90837385660453    1.09926229575640
H           1.36513780759917    0.17048871801866    1.32249087677219
H           0.72152778186176    1.20628984735534    0.09177634409941
H          -0.28785827375052    0.40858480568158    1.22366791184746
H           0.66223846857240    1.71558041416353    1.71321547862466
