    26
        -50.46237366  Gyration_radius:  2.72422020244 Dipole_moment: 4.984
 S           2.51368091071468   -0.43286393935915   -0.03902743836987
O           1.80034153513741   -0.40379290022337   -1.31946620834015
O           2.22227366166185    0.77667077669926    0.72024816423738
O           2.31183385614713   -1.65267231085068    0.69990360315331
O           4.06070841490675   -0.37905278386430   -0.39067310607643
H           4.20300843083056    0.49512685006540   -0.74213043056731
O          -1.28838721888336   -0.66255586040103    0.95121936083285
H          -0.94972138662315   -1.44634164885568    0.45365017721816
O          -3.54012648781442    0.53222511792851   -0.07251488421002
H          -4.09369971997831    0.84170134873793    0.64563703278924
H          -2.84114098721730   -0.01084201747823    0.33413701940787
O          -2.27762158628452    2.10776967669741   -1.86114343013766
H          -2.85115466874979    1.60654848797949   -1.24173294469695
H          -2.53126781160714    1.83186864287140   -2.74303486444291
O           0.06319893666315   -2.45702391442089   -0.44830726598273
H           0.90498916932538   -2.35992865032905    0.04235395389272
H           0.27153102985447   -2.11750205037460   -1.32349057442537
O           0.74242175447633   -0.38122845463583    2.61605425842507
H          -0.68480411568199   -0.58331105103431    1.73077512975486
H           1.18285148613733   -1.23719591825470    2.60498776723022
H           1.31453792859701    0.17507627123158    2.05034894141697
N          -0.11457134577733    1.17889419788092   -0.55089054144624
H           0.60969700373489    0.59003777302866   -1.05192729383710
H          -0.79235351207344    1.66289554109548   -1.17836041035736
H          -0.65146550450201    0.50544340616236    0.07539538657047
H           0.41524023699514    1.82005339971237    0.03798859795814
