    26
        -50.46309156  Gyration_radius:  2.44659755893 Dipole_moment: 4.786
 S           1.32976601863053    0.00086660249507    1.47059847220312
O           1.39086707975218    1.14276270409831    2.33673939102650
O           0.01332753660080   -0.65538329405872    1.46539355650994
O           1.81663921693929    0.19516752828871    0.12234970213372
O           2.31778639123186   -1.09825097449944    2.10032622076072
H           2.31927072121367   -0.89744457506061    3.03148454279012
O           0.06225541717842    1.28700790128365   -1.76637212450785
H           1.01923010836737    1.29594010663050   -1.85542052718239
O          -2.37585198988584    0.65923822701102    1.19591754426014
H          -2.57132299436100    0.38869516597887    0.28598195128471
H          -1.64953507853663    0.09228936761519    1.49965768977159
O           2.17322980818493   -2.22880334704195   -0.83706959400015
H           2.48073117238942   -2.76757177448547   -0.10611155285102
H           2.23762146090783   -1.30197265218964   -0.51634915494721
O          -2.61059581638675    0.29749758785889   -1.61852010648279
H          -1.85305284407892    0.85054501417391   -1.85598796209771
H          -3.39543839223795    0.80630624239246   -1.82861304304500
O          -0.33184596904164    2.32360071631991    0.59776544111460
H          -0.08761759752837    1.74703292656466   -0.89000477394860
H          -1.17261783569389    1.93821926501948    0.92183263079379
H           0.34211635080034    2.06925884188047    1.24804937140599
N          -0.31338168389840   -1.25886229589621   -1.02556904431879
H          -0.29289395395631   -1.10024614321441    0.02856869050620
H          -0.14013106383358   -0.29511269791496   -1.42942602658148
H           0.49907113249977   -1.87228562105473   -1.22841978652482
H          -1.20762719519347   -1.61849483223004   -1.34680151809735
