    26
        -50.46272362  Gyration_radius:  2.48129159552 Dipole_moment: 6.123
 S          -0.69397068354386   -2.20979719534372   -0.32568614084799
O          -0.75632692771334   -1.43137148140541    0.92727862171362
O          -1.89355659283386   -2.09241810387065   -1.11417724309774
O           0.54209730186676   -1.94059427887349   -1.01792420026810
O          -0.64114905638873   -3.73253413886586    0.14304932387699
H          -1.54361956599576   -3.99604556575773   -0.00360710443255
O           0.58860219635052    1.78005079861363   -1.44417019593139
H           0.54373069455377    2.38311767677761   -2.18741933914634
O           2.45959347049615   -0.15338774697621   -0.92578092573204
H           1.95189504738859    0.60062230692775   -1.27685921681548
H           1.91160105912122   -0.93335445300106   -1.15383845655392
O           0.40549741223013    2.37680387999535    1.16045663696015
H           0.47480713935939    2.23749616245343    0.18672987720464
H           0.46661336563500    3.32014723072638    1.31331407576775
O          -2.08279534510290    0.93109657094406    1.15273507509224
H          -1.75778785347433    0.01508910575983    1.20404948573935
H          -1.32051033494470    1.49358177082981    1.34306093673928
O          -1.65979496322946    0.53271378150160   -1.48744381850349
H          -0.25008881684429    1.22251332537127   -1.50464796902022
H          -1.75142009806534   -0.43826885924331   -1.51457279092097
H          -2.03974711235092    0.79018427186585   -0.62169453723172
N           1.42653177314690   -0.14941266092944    1.46035358964692
H           1.95525898245702   -0.52773296243514    2.23763438619177
H           0.54608147077456   -0.73799587934802    1.27561223507423
H           1.12933568032116    0.82158975926382    1.63654107213764
H           1.98912175680076   -0.16209332498175    0.53700661235002
