    26
        -50.46934684  Gyration_radius:  2.40568321315 Dipole_moment: 4.747
 S          -1.17130862739848    0.10624281384800   -1.08373870353973
O          -2.44905792961451    0.44082519306053   -0.25201026177532
O          -0.47980015955178   -0.97291246607591   -0.36659038533022
O          -1.55549556281741   -0.30154697122617   -2.40671938313297
O          -0.33425562752640    1.31967915951202   -1.07713144620709
O          -1.54103922022710   -1.20950350685995    2.03065918953399
H          -1.18922809312423   -1.26488422893365    1.11451615359306
H          -2.43100545466574   -0.86151629306191    1.93854851254712
O           0.33339309008715    0.49882296907878    2.79995349901300
H           0.42223223557254    0.54158703635811    3.75310493824332
H          -0.34445592521761   -0.19928130488944    2.61384407771723
O           1.89319265887602   -0.75302314265910    0.82831029177552
H           1.64422962846491   -0.20815877413335    1.59034009617707
H           1.03287915964286   -1.04803051259362    0.46648185268014
O           0.71605771542849   -1.53520720937076   -2.93079810480467
H           0.61353722372309   -2.30345867082945   -2.36279554996250
H          -0.16456257542079   -1.09327263939069   -2.90656770377707
H           1.68088804200264   -0.45202102217665   -2.19059154620119
O          -1.23596642012431    2.16359820025423    1.26208181110841
H          -0.65155545281670    1.69877892423724    1.88951695652831
H          -0.72693849172640    2.23654933118600    0.43763695283299
H          -2.15182128409627    1.12576616085143    0.40871038500569
N           1.99916325868422    0.33845903431703   -1.56294250291025
H           1.11032657472973    0.91030282504919   -1.41930984497853
H           2.75671404936496    0.87692730860258   -1.96745575448016
H           2.22387718774279   -0.05472220416139   -0.60705352966330
