    26
        -50.46194856  Gyration_radius:  2.51150975835 Dipole_moment: 4.756
 S           1.63032319488588    1.01119600273488    0.90698746908716
O           1.23946692504540    1.96256442633063   -0.11809791619592
O           0.78904120689394    1.12429519537411    2.09389467333455
O           1.72988127772633   -0.35301129852644    0.43468723617633
O           3.09529256844107    1.41977659932044    1.35329105454499
H           3.04249986158539    2.35717145348227    1.51493355530381
O          -1.38390201273123   -2.35218437464333   -1.47187753481779
H          -1.83479176109108   -2.46959285633149   -2.30837027823877
O           0.10425930508834    1.44517119549563   -2.55563819485349
H          -0.79628818129717    1.57610980195134   -2.24650365098251
H           0.66929422072303    1.75859502159645   -1.83043720577416
O          -2.26581379523678   -0.93727424984465    0.56814236719431
H          -2.05881519917771   -1.49397055671898   -0.22182570279690
H          -2.07562676307305   -0.01420367304775    0.30521165335707
O          -1.38308752470913    1.59529299906549    0.13919303716511
H          -0.41871867349807    1.73852803864250    0.05375719918430
H          -1.63872324907186    2.07448812481441    0.92967926345239
O           0.86417028707353   -1.11923303122051   -2.03855668147264
H          -0.50229423813776   -1.94826705089385   -1.69224239176391
H           0.61974878314445   -0.25336987951261   -2.42035675762217
H           1.31610133734036   -0.90854944534645   -1.20539713095668
N          -0.15573312847671   -1.27902991265648    1.99322368108209
H          -0.16417071639584   -1.95442039570861    2.74917192945679
H           0.09412242559609   -0.30190010354311    2.30661488745714
H           0.59606236949894   -1.45742200099863    1.30644880519649
H          -1.11229852009706   -1.22075999988497    1.45406665346368
