    26
        -50.46194855  Gyration_radius:  2.51149197237 Dipole_moment: 4.753
 S          -0.20823173275015   -2.08114794308958    0.35881332147419
O           0.99203768611875   -1.97265129687267    1.18154002220586
O          -1.37567170201237   -1.55559548855063    1.04410663616386
O          -0.01279800211038   -1.53860638948972   -0.96844214918000
O          -0.47574782225487   -3.63007480945588    0.15510270893710
H          -0.75226705225263   -3.93919081033824    1.01278069114302
O           0.27086441610402    2.53731810904491   -1.76112469907840
H          -0.23364364924944    3.34035478098427   -1.89307882898291
O          -0.18029550209249    0.61306268117536    2.01716566002671
H           0.34151279735411    0.31213475757198    2.76349133526927
H          -0.61605110151738   -0.19105148585862    1.66882714463247
O          -2.82331483293952    0.68675759667902    0.43336510418603
H          -2.34619147293182    1.25204866956379    1.04695441269812
H          -2.53507131905335   -0.21650589673275    0.64434746582693
O           1.60287140061393    1.89515333460326    0.41934225357144
H           1.13252757779376    2.25840728034552   -0.37039196929027
H           0.90448265140867    1.58750644660958    1.03171448094742
O          -1.46079518654172    0.56994457623131   -1.92271451400246
H          -1.00118697718273   -0.25974501913042   -1.71493421911774
H          -2.09756579560685    0.69669730481008   -1.19217647973889
H          -0.37048781306574    1.78847674701835   -1.89083843377009
N           2.29393930355635   -0.42853477558759   -0.43089508532358
H           1.56858553384638   -0.67827287400268   -1.12386123861284
H           3.23482403026932   -0.57710886620368   -0.77779688444436
H           2.11390314620011    0.60321873994983   -0.09592063334529
H           2.03377144829512   -1.07259534926555    0.36462388780279
