    26
        -50.46194854  Gyration_radius:  2.51150901428 Dipole_moment: 4.754
 S           1.93700665023914   -0.60392261477717    0.62165691347720
O           2.14977934208386   -0.37914616539270   -0.79710767016957
O           1.99023795478639    0.64329966583593    1.37725626728860
O           0.75039012481932   -1.37567153056429    0.92235657727636
O           3.15895949765160   -1.48311138722839    1.11767641795670
H           3.92821665244264   -1.03589326655682    0.77728159727414
O          -3.06052387157118   -0.32115882003060   -0.37738780584743
H          -3.66212377000328   -0.34699398956263   -1.12184357852324
O           0.34922077451031   -0.66674001580327   -2.83964904578572
H           0.09464654934060    0.26000368843076   -2.84466845636961
H           1.12744382861179   -0.71270760757408   -2.26023229898626
O           0.60203311672461    1.77733975589116   -0.97847714471920
H           1.18070678178985    0.99118340578386   -0.90827698584643
H           1.11338369860041    2.49901364121307   -0.60760080819515
O          -1.71379418345564    1.79041630263539    0.44052530306401
H          -2.31107807864790    1.08119695096130    0.09829263831041
H          -0.97247761289560    1.84916501045448   -0.19538871023055
O          -1.12148061679666   -1.99066134053394   -0.96739507461400
H          -0.44639161267562   -1.93358110048081   -0.27185536117442
H          -2.36250387908062   -1.00346787160249   -0.56765388113911
H          -0.68755214346124   -1.64252969027714   -1.77097712797628
N          -0.43095158809566    0.52736626263011    2.27333920433818
H          -0.71916870215770    0.61732154461390    3.24108498755494
H          -0.41568956179214   -0.45464601386676    1.95068675274746
H          -1.05354360435976    1.11129409044025    1.58020659956642
H           0.57525422338597    0.80263110537850    2.10815069073329
