    26
        -50.45835394  Gyration_radius:  2.59549471762 Dipole_moment: 7.809
 S           1.81879880014959   -0.42426190380651   -0.21939388528311
O           1.64657637110746   -0.90926512030747    1.13538442074695
O           1.23628708176950   -1.37262296786810   -1.19167743310334
O           1.28091614868302    0.90866684899228   -0.42956294937181
O           3.35103534673591   -0.35074760199290   -0.52852983801214
H           3.65581761209771   -1.26598619194581   -0.36901040185882
O          -2.49331563067619   -0.47675204771977    0.28671538930889
H          -2.90548553718242   -1.32273698571500    0.46450178725120
O           3.13090528403409   -2.92004289345133    0.08371861280093
H           2.69035317912375   -2.55577681183399    0.86529243375061
H           2.44806047150707   -2.92238964424962   -0.59899987147530
O          -0.22714792829847    2.43128525387976    1.24320520591743
H           0.50247488459150    2.06028700123483    0.71988892745850
H          -0.95575474893610    2.55699372543826    0.61547490601631
O          -2.49793463275365    2.21712452557501   -0.42294989685918
H          -2.72406994455697    1.34228233992455   -0.07243491781850
H          -3.14861167949567    2.82937031172167   -0.07609598494758
O          -0.71972489142705   -0.06704494488113    2.07047499264803
H          -1.80686142463638   -0.34176887555259    1.03217412593611
H           0.14368960767405   -0.46053079278297    1.83293550837364
H          -0.56832678588272    0.90308822179278    2.00471118683947
N          -0.80894926581057    0.03065839611077   -1.72520118460234
H          -0.26800838542117    0.83116817099213   -1.34597478392283
H          -1.17167129839004    0.21671042366514   -2.65368326836104
H          -0.04130752217530   -0.72680679931227   -1.68325511730399
H          -1.56774510186600   -0.21090164788305   -1.03770797416900
