    26
        -50.45493802  Gyration_radius:  2.63703727143 Dipole_moment: 5.977
 S          -0.41995286274260   -2.62383577214206   -0.32603698172861
O           0.14309372513686   -1.65966160372030   -1.25048800850918
O           0.42344821392907   -2.71944296474077    0.87362879998629
O          -1.81144251013883   -2.39194607657734   -0.01382013228244
O          -0.34647434949849   -4.04358974314294   -1.03173880456440
H           0.55571504368457   -4.09365915973823   -1.33387994799164
O           2.11449916509246    1.05712348455955   -0.42248438675409
H           2.89278723516320    0.58387440282645   -0.71779427615091
O          -1.43892803829960    2.07775510685228   -0.66961227346070
H          -1.85514602166374    1.34298253025127   -0.19573927473203
H          -0.82050550293747    2.47631651231882   -0.03497031864281
O           0.65733359182972    2.93423399209685    0.98130216025939
H           1.32039470734936    2.43206527148735    0.48172519776673
H           0.82654811814801    3.86067872667392    0.80465254214717
O          -2.05597880220368   -0.04733296484710    0.99995499939758
H          -2.02768024117149   -0.93602982348539    0.54686016003871
H          -2.79140859511075   -0.09078654433402    1.61339060180642
O           0.34947600834570    0.81988382277617   -2.23705099449445
H           0.17284494062319   -0.12235109529845   -2.05865336264994
H          -0.40434533237522    1.31284917058872   -1.84315052898417
H           1.45502097847944    1.01053719081307   -1.20609408905169
N           0.62330079409793   -0.22157920719422    1.42367265484372
H           0.63115128054513   -1.28843531332757    1.24759598871115
H          -0.37140015155673    0.06732243377189    1.32410080884176
H           0.96349237106230    0.00917280597915    2.35194567039199
H           1.21415624420875    0.25385478754621    0.69268379580188
