    26
        -50.45689060  Gyration_radius:  2.60179115694 Dipole_moment: 5.419
 S           1.90005617869428    0.86079773783603   -0.47886752917671
O           1.30926326251267   -0.03883272737472   -1.44778361504692
O           1.16260136112421    2.12036838072081   -0.40944991407571
O           2.07737316118723    0.25296315884664    0.82862818565350
O           3.35475208796829    1.22433319925189   -0.98820649329502
H           3.17848634499761    1.68053483173489   -1.80476100816508
O          -1.46243619847722   -0.86984904495581   -1.54518123973699
H          -0.87294261620786   -0.48404329746858   -2.20203614415061
O           0.13176163743765    0.50445354262353    2.57719632751603
H           0.35057797470924    1.16781309312772    3.23308531327178
H           0.92192180056427    0.43279675401810    1.98869895887698
O           1.26567580651619   -2.19866105831530    1.73065136554347
H           0.64740121627062   -1.84076705759105    2.37313166640786
H           1.77313118164908   -1.43463621507980    1.40796908750822
O          -3.61119714946556    0.91376524446611   -0.91298757113425
H          -3.12766778093351    0.15893083743740   -1.27769804379959
H          -4.50979027402025    0.84985881846191   -1.23762679377807
O           0.39685929871297   -2.53675876932688   -0.82854832994643
H           0.63353701587011   -2.65045476944128    0.11052200553863
H          -0.94342472108790   -1.65852625141811   -1.22660237829693
H           0.95447541067256   -1.80052714012912   -1.13431161004940
N          -1.12101998988312    1.08031448631867    0.26075563360993
H          -2.00328273358833    1.58702277477866    0.16797326009550
H          -1.20435027580330    0.22644225306505   -0.35601290450270
H          -0.28171313179787    1.63811618431867   -0.07389716124137
H          -0.92004885762894    0.81454505409008    1.24535891238118
