    26
        -50.46104788  Gyration_radius:  2.52335775554 Dipole_moment: 5.429
 S           0.05424469236250   -2.12160822481018    0.33183876760229
O           0.05265816986382   -3.09719050979534   -0.72522581166901
O           1.34962016032625   -1.60897027075702    0.72637091400410
O          -0.87241346117940   -1.00439620467641    0.11667469948743
O          -0.53688031921393   -2.87427057306743    1.61614486957711
H          -0.46229275553822   -3.79462394053139    1.38366200535868
O           1.23608381931867    2.03831368986315   -0.54785885377288
H           1.88541422173732    2.72590804189264   -0.69707170771862
O          -1.54942133259086    1.51410940335501   -0.77139286909818
H          -1.45403226794217    0.56463868845864   -0.59525824167136
H          -0.65273596161223    1.83813162389064   -0.93897341459782
O           0.03243458159335   -1.28508359248781   -2.68492888721826
H          -0.80594749190977   -0.84119194797108   -2.53961266274724
H           0.02480984214404   -2.06993374605973   -2.10484452695163
O          -1.98345448719526    2.24842138277785    1.75793231221796
H          -2.82569360348560    1.89236165019136    2.04405628290424
H          -1.95694177185764    2.13171142023338    0.77566859335907
O           2.14270927092976   -0.19841365432464   -1.40951039316831
H           2.03621946329969   -0.77359521214940   -0.62715968416949
H           1.50406287908069   -0.54752348034306   -2.06400404126867
H           1.62012760608623    1.19454823195511   -0.95358934181691
N           0.24757030040949    0.81931072570839    1.61746794638468
H          -0.17761467247740    0.00504250590218    1.08216888671568
H           0.77474476533662    1.37936530556207    0.90226026465766
H          -0.54858019502935    1.40538401903197    1.96804787907462
H           0.86530853753538    0.45955463818264    2.33713701452707
