    26
        -50.46579959  Gyration_radius:  2.55619584901 Dipole_moment: 3.434
 S          -0.69284268792940    2.08812387143058    0.24386860061858
O           0.44060210357485    2.88579023990370    0.65420611449946
O          -0.69062424883099    1.77794123315278   -1.18031483644713
O          -0.89173976561066    0.88220166510304    1.03360441601460
O          -1.96749744823043    2.99852891614188    0.51046414819382
H          -1.56729688156134    3.86078712524505    0.52766066304760
O           1.27099710474156   -1.64325619742212   -1.38538456456293
H           1.94694256008771   -1.19954179380812   -1.89987711589591
O          -0.05480830826287   -2.92710136873629    1.15804185931691
H           0.52096899681245   -2.19369790603596    1.41910257574203
H           0.31489338744510   -3.26587539911531    0.33882004201060
O          -2.24574228751464   -1.41354479378630    0.61855258376417
H          -1.59818016211494   -2.07536777077391    0.94021765708201
H          -1.95766718100702   -0.56617236512049    1.00359722055489
O           2.75821670069587    1.65218561995941    0.39318470463668
H           3.35277808617545    2.09552073908547    1.00089901848408
H           1.92237312217184    2.17230271733254    0.41287257245817
O           1.34120205868306   -0.52775361719551    0.99382436941730
H           1.34469603620984   -1.26137322423929   -0.46773815517380
H           2.02358538763915    0.16355758894633    0.86314212499799
H           0.50616948512205   -0.02053994008019    1.09317817988947
N          -1.22834571368487   -0.70968234208453   -1.68208992151329
H          -1.75042595321840   -1.06988008207817   -0.81526521810689
H          -1.06021626192124    0.33302361387962   -1.52746791821965
H          -0.28558643295591   -1.16623797967443   -1.71263041267467
H          -1.75245167648352   -0.86993855002387   -2.53446871812839
