    26
        -50.45649290  Gyration_radius:  2.55147848441 Dipole_moment: 5.926
 S           0.66588877918232   -1.83003820096077   -0.05946564963979
O           0.58105284567083   -2.18727045574288   -1.44801174883772
O           1.39306059488934   -0.56855986619647    0.16758878263013
O          -0.57950423714695   -1.82935430924721    0.67345590551992
O           1.56753975918997   -2.95162119085948    0.63126939271618
H           2.14937591870707   -3.22595506424470   -0.07108140809266
O          -1.54967565783762    1.51247070243671    0.02290040284907
H          -2.50508135019577    1.55074560255954    0.08246592687575
O          -0.89309264782787   -1.44282596353577    3.22014428264458
H          -0.74848887787110   -1.78470638658458    2.30323826235474
H          -1.80223196464905   -1.65687609628813    3.43607658417970
O           0.57144394015234    1.53314131724982   -3.40276314203659
H           1.00276916611456    1.76507794404503   -2.55351201636459
H           0.26969166580246    2.35532907098146   -3.79112496092921
O           1.22790389195271    1.98385585545412   -0.81849155635017
H           0.30615101672794    2.11148240812894   -0.56658479805251
H           1.44316270709817    1.06730188530523   -0.57277829826295
O          -1.04221671417404   -0.11242681604534   -1.92158837717418
H          -1.36203408927302    0.83618621810188   -0.69987569348663
H          -0.52863255043641    0.38412365787290   -2.59068027370573
H          -0.54164845413085   -0.93358607205639   -1.77290516084360
N           0.07586948104200    0.70963303970797    1.97944356823600
H          -0.33330043805632    0.01070831077354    2.64299346834838
H          -0.66901967150671    1.08674883259540    1.34061390064552
H           0.58002477518860    1.45172661109142    2.45272746601582
H           0.72099211138975    0.16468897545781    1.31594514076060
