    26
        -50.46934682  Gyration_radius:  2.40549372754 Dipole_moment: 4.749
 S          -0.68628056417961    1.14859695596507    0.87418610109170
O           0.69916153534634    1.50152547316096    0.51486844130060
O          -1.02891923806428    1.52367670097795    2.21811109751045
O          -1.61390499084994    1.90427194458277   -0.12830786953807
O          -0.90526853927760   -0.28512268504649    0.64238312813458
O           0.90108439249631   -1.97573115712490   -0.34982073417140
H           0.91662526920122   -1.67799652980614   -1.27215638114171
H           0.10555595647225   -1.54027756366041    0.01844766548363
O          -2.24897642323876   -0.57962031654321   -1.60192800614283
H          -1.86551743154828   -0.53901102229030   -0.69779281040751
H          -2.72269283346705    0.24807580768988   -1.71238647020347
O           0.12911925320172   -0.75456907375471   -2.75828607123452
H           0.07729524427103   -1.08927681571410   -3.65462533807710
H          -0.79335192237203   -0.77821039691124   -2.39780529508932
O           0.08889263763772   -0.58944649110880    3.33246707584833
H           1.38244129882869   -0.64878794134868    2.34455137644700
H          -0.33835733831128    0.26205302583910    3.07980045976071
H          -0.54220149350295   -1.26230062634245    3.06350128079181
O           0.14117912416663    1.90659287820925   -2.03881434352278
H           0.71104210300936    1.91268508144010   -1.25181102731358
H           0.22173444097109    1.00936872098694   -2.41259945202913
H          -1.06946332496005    2.00015075203073   -0.95819801261220
N           2.01077520703966   -0.48191354098270    1.50948994469316
H           1.63704014037249    0.42925027978257    1.10003417814282
H           1.80203219627279   -1.21293483583772    0.77398028800600
H           2.99095530045916   -0.43104861419375    1.76271077425608
