    26
        -50.47071332  Gyration_radius:  2.41586367103 Dipole_moment: 4.142
 S           0.20818035549360   -1.51878658396282   -1.32695226791243
O           0.89911476711076   -0.37186107651029   -1.92072010523432
O           0.80434587431558   -1.91749127243753   -0.07473519607395
O          -1.22665354406408   -1.29842187837544   -1.26101373591921
O           0.41908315487085   -2.72842301548696   -2.32634724529519
H          -0.17121854913806   -2.50890420361198   -3.03894225825555
O          -1.07270172658417    2.25366272571902    0.40086316822710
H          -1.40615884691648    3.15130301037163    0.38101892699840
O          -0.07129138113104   -1.14855254127076    2.32056868994064
H          -1.00108812003009   -0.94505148522503    2.06034620814650
H           0.27876077678662   -1.64405977244513    1.55265226483185
O           2.70120416208221    0.05416313899014   -0.08746863586581
H           2.12536013603807    0.00061893843403   -0.88512274092006
H           2.71976597748300   -0.85859972435792    0.22210749106658
O          -2.22505166111241   -0.30610492848675    1.04260470374379
H          -2.04247272476412    0.63246357772544    0.90223475323987
H          -1.97835641931062   -0.75475071632848    0.21097479383221
O          -1.13233948690334    1.26975006469502   -2.00276804115469
H          -1.67782763184226    0.47979007063708   -1.87154594842534
H          -1.08083521666890    1.93384709959237   -0.54906234359586
H          -0.24396421886427    0.87653941330624   -2.12360224133971
N           1.04357241934052    1.09843155937709    1.68697590905350
H           1.76786812740464    0.78673737970816    0.97169767782102
H           1.47336532990467    1.63836323875898    2.42950017276378
H           0.29626133281472    1.64425734322166    1.21639461204211
H           0.59307714369622    0.18107965795574    2.07034136829819
