    26
        -50.46898129  Gyration_radius:  2.55811694657 Dipole_moment: 1.080
 S          -0.13774614782111   -2.00313435026255   -0.17134293325090
O           0.76814555486219   -2.23961661668597    0.93191648653333
O          -1.48060693083086   -1.66198568167734    0.27891106002784
O           0.36721798556597   -1.02917014486979   -1.12657072296716
O          -0.24923859510268   -3.37718553142488   -0.95234596793234
H          -0.12207661365749   -4.00635243707567   -0.25015516782913
O           1.02404452433674    2.98438378589440   -1.07214683054164
H           1.67612116718861    3.25641431535240   -1.71869913017671
O           2.74995149217995   -0.76791990271603    1.94288926696952
H           2.73621317370821   -0.91305379221537    2.89023260224997
H           2.11454660853160   -1.41331716890465    1.56533754663559
O          -2.73535689705006    0.48521674252376   -0.66337541289212
H          -2.30625375044659   -0.35576417833847   -0.39068846728896
H          -3.56196529297572    0.23966439762717   -1.08073372716918
O          -1.21584144162994    0.52460315906894    1.82095650064375
H          -1.89079725633837    1.02505540232505    1.34802931842167
H          -1.31293156283969   -0.38915699616257    1.48977968586521
O          -0.63599107299286    1.28088065878235   -2.24446077971488
H          -0.20636476598619    0.42224686729741   -2.10487715442838
H          -1.47132006768297    1.20807905639482   -1.74979859498353
H           0.34545875499269    2.46174718913423   -1.57119467029693
N           1.12889181099985    0.87685915593776    0.57406889816600
H           1.93246701292830    0.54487188081657    1.13954972449230
H           1.27073591717657    1.79401866193515    0.09613768826357
H           0.94450921980721    0.15019297544860   -0.15567127245181
H           0.26818717313808    0.90242254184396    1.17425206389902
