    26
        -50.46342038  Gyration_radius:  2.49285334077 Dipole_moment: 5.571
 S          -1.95885401348202    0.22677575961791    0.59474191248790
O          -1.65134812721160    1.19136780429559   -0.44548463176057
O          -1.93895799702804   -1.14052129066102    0.12671882891929
O          -1.12688963995202    0.44444477636250    1.77708812713645
O          -3.44427912012871    0.50465169395500    1.06744228340852
H          -3.93951178457328    0.00388607697965    0.42805800779255
O           1.92605138662426   -1.44553350930962    0.68854771650909
H           1.32000234743805   -1.84053392303743    1.35611994879277
O           0.57810483408504    2.21915259081672   -1.18478696048560
H          -0.30362838114605    1.81706000393591   -0.94052086733597
H           0.38017562771868    3.11641709149740   -1.45828228837228
O           0.90408357405889    0.30827201720657   -3.16035743973266
H           0.81876325619240    1.04555932291618   -2.53131507755414
H           1.83997365962789    0.19110335532291   -3.33151199336763
O          -0.22487050675667   -2.07365429177113    2.14852690310584
H          -0.77121531393878   -2.49565257621190    1.47711043389428
H          -0.59279500207596   -1.17510031187181    2.21562276601308
O           0.28183493774021   -1.65797914676433   -1.33496461156587
H           1.44571839292118   -1.60446347496645   -0.16626118333454
H          -0.58152179636062   -1.50293647950146   -0.91214980702119
H           0.35289850004662   -1.03097102627926   -2.07602207129326
N           1.35926725189027    1.00875441152714    1.13969467285398
H           1.92889830934806    1.46585623833304    1.84273203244907
H           0.36787388652227    0.88459620262468    1.48036260424472
H           1.31475136785241    1.56116252024646    0.26759026508026
H           1.71547434059098   -0.02171386527078    0.93130043914505
