    26
        -50.46928676  Gyration_radius:  2.5024249794 Dipole_moment: 3.645
 S          -1.19288586316584   -1.64178989273467    0.58599764053261
O          -1.41999465096539   -1.63076935525197   -0.84588097769910
O           0.06482622129883   -2.26426332857210    0.95026606259675
O          -1.35847378335617   -0.33024408196955    1.19981250295219
O          -2.34463644383041   -2.53427707657943    1.20708756763297
H          -2.26447206921406   -3.33051185125351    0.69331969452283
O          -0.51897638533501    2.21607728599258   -1.37671656136327
H          -1.44198228328661    1.88113547829914   -1.30267334778292
O          -2.72077071060412    0.79545866584465   -0.82212149609920
H          -2.63494785913568    0.02712918081466   -1.39766946772318
H          -2.39508195241873    0.46759896597939    0.03501878451871
O           2.79072667982449    1.10247725599774    0.84457188442258
H           3.16516641407481    1.49467970740446    0.05294346157542
H           2.68847976063223    0.14465258928408    0.64693486486319
O           2.33637513411312   -1.41330474043488    0.07806606468665
H           2.95360798329183   -2.13665810646871    0.19847420340123
H           1.46906663486783   -1.73760989600760    0.44225846669678
O           0.62200214345126   -0.17544994575548   -1.78485745921768
H          -0.02134086000954    1.45412216928026   -1.74013265228194
H           1.37618668036642   -0.58022537629014   -1.33937124855584
H          -0.14033128238235   -0.74392420488430   -1.56387473177791
N           0.20555265974420    1.80318838972102    1.07279362984622
H          -0.07500373182289    2.11535455082801    0.06833178982906
H           1.22905584596641    1.57548172349513    1.08407561251280
H          -0.02195741993682    2.51000864114109    1.76284966062118
H          -0.35019085216471    0.93166326210823    1.25049604129403
