    26
        -50.45446475  Gyration_radius:  2.59450439609 Dipole_moment: 6.565
 S          -1.20805371968181   -2.10266693194093    0.53982793413192
O          -0.08864659036494   -2.42195694632383   -0.35631746616057
O          -1.04240523299801   -2.54898296691277    1.89151262193470
O          -1.57668107526508   -0.69681952571118    0.39920500591456
O          -2.44932386281172   -2.92131554698409   -0.05067748888291
H          -2.71440061674890   -3.49448774174855    0.66298035786399
O           1.84917855390807    1.39065251577317   -1.22163755177011
H           2.75645886410023    1.21577897111860   -1.47271161384867
O          -0.92593830855058    1.77152260403738    1.31791949180454
H          -1.28752665020930    0.87848083809494    1.20060979450558
H          -0.99851586173089    2.19295683453376    0.44657523643886
O           1.46575797601392   -1.48316984053660    1.64218866648061
H           0.78708282984243   -1.75419851829001    2.27242476481231
H           1.19620928099070   -1.92470550785469    0.82347674627841
O          -0.55834573552487    2.79162592685633   -1.28350682868432
H           0.37005594004423    2.51552182190681   -1.32205331714823
H          -0.55740087215916    3.74731412120029   -1.21263976978580
O           1.67959754918800    1.19266495009194    1.29939762653658
H           1.70471149279840    0.23853376287721    1.51607547557854
H           1.83009657329000    1.33814714308500   -0.19469695979354
H           0.75325254192896    1.47797213798495    1.47851391912594
N          -0.18690106856888   -0.26374850483239   -1.71992653231982
H           0.03746030469380   -1.26009344784599   -1.43435602495852
H          -0.58546670486967   -0.18589990384239   -2.64896651691508
H          -0.89949510313789   -0.06114684205038   -0.97269737038172
H           0.64923950582356    0.36802058731383   -1.60052022075776
