    26
        -50.45718471  Gyration_radius:  2.60312992743 Dipole_moment: 5.471
 S          -0.80313814407232   -1.68895381134954    1.06181637489984
O          -0.80125219082001   -0.79557198361259    2.21767994101277
O          -1.90606306717835   -1.36114859442113    0.15849883620253
O           0.47105443429958   -1.74347607811736    0.39536448316701
O          -1.10302290417647   -3.13875749525729    1.62447730874967
H          -1.86556736341964   -2.99651640885937    2.17648562313605
O           2.30703998226070    0.34082293542942   -0.49925207000440
H           2.56144799556530   -0.38785958303438    0.07458572764282
O          -2.23013061293503    1.21364826949910   -0.21449900956709
H          -2.18718888262149    0.23571446398892   -0.06745763370722
H          -3.01490223955253    1.51642256966953    0.24418463206062
O          -1.51627412787003   -0.66338383074363   -2.46176348859754
H          -1.79985041293397    0.24597719941008   -2.33575903347728
H          -1.70429273232874   -1.10961465050452   -1.61776368373303
O           2.45029496295906    2.82730462415181    0.90140054477536
H           2.66295776700272    2.10433111407911    0.29369115747450
H           3.18771467633260    3.43761099468223    0.87468191639541
O           1.12682283766386   -1.23701648382198   -2.19528873889307
H           0.92268914990106   -1.72840626839319   -1.38195626430542
H           0.25073438704329   -0.98603812544213   -2.54295515597352
H           1.93029256111235   -0.12347584378184   -1.29874689218200
N           0.21059199150243    1.22624153789755    0.92730703484374
H           0.64412345713937    2.03250484454062    1.38185864869298
H          -0.09694405220438    0.47221640081829    1.60447403143205
H          -0.64127950676492    1.49042352084484    0.39257731362906
H           0.94414202404851    0.81700066229741    0.28635840632248
