    26
        -50.46245810  Gyration_radius:  2.53000924214 Dipole_moment: 4.457
 S          -0.12475649738261   -2.20864804741226    0.39194043426791
O           1.13366756122477   -1.55702548197950    0.11150648830098
O          -0.20331592950103   -2.79392485595779    1.71195256499938
O          -1.25367274069874   -1.30295361723146    0.13269375166977
O          -0.27029727235120   -3.39251514949777   -0.65131572194118
H          -0.98082888333908   -3.92492488404994   -0.30526571414324
O           1.28011721977678    2.09026738926131   -0.47564270707635
H           2.19597756653304    2.31075217823157   -0.30463740784504
O          -1.48377036838771    0.19387176360806   -2.10343216042803
H          -1.55878911162415   -0.46246468676200   -1.38961522781000
H          -1.64496693694643    1.05124898685114   -1.67794258752750
O          -1.40104768681366    2.69989486738438   -0.79628808153741
H          -1.66818243966741    3.36281644435877   -1.43452183472334
H          -0.43098140167988    2.69500626867227   -0.79019788496235
O           1.15217559726861   -0.84981629611464    2.83285389025324
H           1.95698536475209   -0.96686337549498    2.31889718106665
H           0.61799262317762   -1.64780919752155    2.61123801818307
O           1.19150328130413    0.06168982525094   -2.01256632021608
H           1.26887976766192   -0.63982533204160   -1.33465389961166
H           0.24309616596865    0.06191394281501   -2.27449999454381
H           1.29923792690063    1.32159005658489   -1.14952102427286
N          -0.27012598172026    0.80403423000829    1.32955589855918
H           0.30206250002314    0.28829889115987    2.05702624756485
H          -0.94779441979528    1.44169174374532    1.73642860103344
H           0.36505469577664    1.32520581718921    0.67618669915989
H          -0.76822059047410    0.03848850892996    0.78982080162546
