    26
        -50.46163581  Gyration_radius:  2.55731531753 Dipole_moment: 2.259
 S          -0.68168667281221    0.82181970628976   -2.07125023907315
O           0.12920141899462    1.73706518459845   -1.26932992845081
O           0.13302826130360   -0.12755344446494   -2.80616078675196
O          -1.72966786549261    0.23363246833104   -1.27036071134256
O          -1.39724186716781    1.71032351144835   -3.17999969750082
H          -0.72616611642271    1.77005551543567   -3.85244509122559
O          -1.11675927963835   -1.06309904174045    1.93199284661227
H          -1.84983835431547   -1.34552745568275    2.47937747915922
O           1.89052060214659    1.64510561864081    2.02544390006287
H           2.37035612205630    2.00501238303756    1.27648013121005
H           1.96611918297599    0.65999349648376    1.94567683729707
O           1.68116779290883   -0.94599404059918    1.56429269103521
H           1.65697550286053   -1.16356708279709    0.61664076695214
H           0.79272566809722   -1.14016827312677    1.89319264469132
O           1.33834171838450   -1.64687589283615   -1.09086924855952
H           1.99767454553136   -2.14858163078447   -1.57314660840331
H           0.92477847838719   -1.03341616961876   -1.75122565165946
O          -1.27301675208355   -2.20917006392429   -0.37383759966355
H          -1.58837598131305   -1.39791608343132   -0.82534256474302
H          -0.34334754560796   -2.29049010457910   -0.64164423637604
H          -1.20852618886194   -1.56808828212213    1.06443916498254
N          -0.61737209056231    1.50740909492432    1.19639806151474
H          -0.92557789288901    0.53475972006244    1.42365671819541
H          -1.32493528762276    2.18132961677546    1.46567473787325
H           0.31200124287083    1.68543096780559    1.67322500515364
H          -0.41037864173595    1.58851029187760    0.14912136899790
