    26
        -50.46911893  Gyration_radius:  2.45460609386 Dipole_moment: 4.017
 S          -0.59810133709075   -2.15422564619061    0.12253887953308
O          -1.30117172365416   -2.45137955773757   -1.09145445426933
O           0.82392359275614   -1.85172604544103   -0.07942395415089
O          -1.21822776018366   -1.11542162546415    0.93339936634889
O          -0.63349277933533   -3.48213703198909    0.99920484336307
H          -0.94235539489950   -4.12973051641197    0.37325685576294
O           1.69280400249728    1.86853201063556   -0.95632146731042
H           2.28871291539754    2.32000044369866   -1.55437363798021
O          -0.84346885244206    2.50272405897222    0.14902912422107
H          -1.41091841682791    1.92267045966986   -0.37600946116431
H           0.02887465420072    2.47390941353408   -0.27040081171776
O          -2.00817803003735    0.27515117045735   -1.16152976046448
H          -1.80850676610477   -0.23056967734750   -0.34438698348727
H          -2.54890394667932   -0.31855018387982   -1.68794021028667
O          -0.45064796296967    1.03149337403966    2.34630672952179
H          -0.93110737863067    0.23226273703817    2.06399099719858
H          -0.70338860451037    1.71886634762887    1.68560695059371
O           0.50974533439560   -0.11485301629674   -2.12410064310596
H           1.26482118847330    1.12958887414482   -1.48576226093205
H           0.69236999744760   -0.89120900157938   -1.56723037996917
H          -0.44034145880534    0.06751417328892   -1.98825810925980
N           1.73854303110818    0.24053974484578    1.21476759078668
H           1.41735994294073   -0.65690161116894    0.74780638497000
H           1.92488631179133    0.93449143922502    0.46471190414752
H           0.89661005035951    0.60238248454924    1.80168675691649
H           2.56015935073903    0.07657717189705    1.78488577079706
