    26
        -50.46047655  Gyration_radius:  2.51773156549 Dipole_moment: 5.318
 S          -1.52890408767917   -1.53066281195883    0.40517258807576
O          -0.84894256915173   -1.70981499855370    1.68868545995043
O          -2.61423752772634   -0.58525344261492    0.46368961336836
O          -0.55670511433822   -1.27497208410904   -0.64572887379716
O          -2.18968614612106   -2.93236376191083    0.05159967559326
H          -3.05821553773458   -2.82364682593358    0.42410451062972
O           1.11484566476477    1.66929449413805    1.02635112921252
H           1.32249221367148    2.42211276798566    1.58091241650287
O           0.90724633697256    0.76004320888862   -1.64307963550111
H           0.27289957601663    0.06365685549373   -1.38493021017847
H           1.16593022497328    1.18396908514585   -0.81279342268893
O           2.01319876589410   -1.83538338662948   -1.01821366790547
H           2.17117826285711   -1.07047139940588   -1.58627786562797
H           1.04242017374032   -1.94862471126754   -1.04299174479719
O          -1.11678240474094    2.53873394088089   -2.02271527018587
H          -0.80124676425209    3.36462205277575   -2.39078747937042
H          -0.38218928764989    1.89576665877235   -2.09853037128988
O          -1.41034084865827    1.77821698650540    0.60536049663680
H          -1.91059399699209    0.93630484119646    0.60989081451587
H           0.10779543620672    1.69180060321582    0.90556747297844
H          -1.49308573923586    2.12035505436677   -0.30498757687483
N           1.58824014919714   -0.94341846939160    1.45491698668253
H           0.58287660391632   -1.31190897502935    1.60425031468693
H           1.51080873286382    0.09651655368684    1.38622062592761
H           2.19344551545830   -1.22624958063386    2.21748500924564
H           1.91755236774513   -1.32862267561301    0.52682899420993
