    26
        -50.46688663  Gyration_radius:  2.50362387784 Dipole_moment: 2.236
 S          -1.67538838601713   -1.04837518577637    0.06432595218022
O          -1.59974647559738   -1.50588773402488   -1.30475148201845
O          -0.42591378376638   -1.31186183616845    0.78429849541021
O          -2.07558012692287    0.33469610150938    0.20962430007483
O          -2.79165622566200   -1.92803314565519    0.76433267340027
H          -2.78651383481507   -2.71922344118404    0.23506516498487
O          -0.82360742162368    1.94221243417110   -1.50037170781682
H          -1.49174224517676    1.38795640495711   -1.04970858766323
O           2.48625233142073    1.32567176758773    0.91769531185125
H           1.75649153497571    1.95550906124889    1.01960112480894
H           2.32639388638106    0.68543210482725    1.63198706776085
O           0.56868710423409   -1.69491882171244   -2.87988635646954
H          -0.24988108222503   -1.73779480378110   -2.34313196533311
H           0.28035295021113   -1.54095835932107   -3.78075881852800
O           1.17147834940174   -0.33602642013482    2.69870009410991
H           0.55119152977830   -0.72646708413837    2.04989414529428
H           1.42107648263287   -1.04723306866922    3.28953688051319
O          -0.20462426431106    1.91228802980392    1.43488527011353
H           0.03975283758921    1.47009078356210    2.25380274452997
H          -0.67761795947580    2.68633911938518   -0.90818233865293
H          -0.94485177150983    1.38931535912980    1.07926614056436
N           1.05682235511553    0.10201683553526   -0.94784491966444
H           1.85401724825673    0.52948972573206   -0.41270952574067
H           1.30322984717708   -0.49099545782773   -1.75705965790447
H           0.52375908811536   -0.49909499500745   -0.28016551573183
H           0.40761806175096    0.86585264588363   -1.26844447005034
