    26
        -50.46794260  Gyration_radius:  2.46412944746 Dipole_moment: 2.607
 S           0.10434789691013   -1.78639898146626    0.44774301271379
O          -1.09509334893345   -2.17997889511573   -0.25481072936453
O           1.20015681550251   -1.47536078808950   -0.46099115339706
O          -0.10188415568825   -0.71518940742099    1.41035388589893
O           0.55780001203195   -3.03748781797407    1.30539441903500
H           0.42563905877038   -3.76288734408593    0.70373433374494
O           2.61465144326841    0.66294125906329   -1.26493782691987
H           2.31735892547362   -0.21189065247866   -0.94972951041331
O          -2.60427616618145   -0.02712837227145    0.23945392898516
H          -2.17840126501629   -0.87436038363093    0.00598937504828
H          -2.33348320316831    0.14158510518576    1.14485496980280
O          -1.37295485466541    1.68088443281470   -1.43236968710545
H          -1.01103509356358    0.99240636348604   -2.02682466481985
H          -2.02678567188384    1.19896442991771   -0.88211111348374
O           0.41543553751061    1.49518484909764    3.05131167090252
H           0.21615165277504    0.61519275142575    2.70090652976014
H           0.53318586198941    1.39111137243001    3.99608689238576
O          -0.30006369177430   -0.57556029767361   -2.47738926054804
H          -1.05026440276331   -1.17572045920428   -2.47746563676070
H           2.39042169526014    0.68696667101391   -2.19856896909198
H           0.29691796199916   -0.93776419979127   -1.79514872082747
N           0.61220241423943    1.60874235842405    0.24726922189958
H           1.49608693845338    1.47550731631490   -0.29487964218761
H           0.38147897170453    0.69198774355230    0.69234625240882
H           0.70795095282382    2.29076219858312    0.99728613566481
H          -0.19554427505211    1.82749074787674   -0.42750372329370
