    26
        -50.45446534  Gyration_radius:  2.5953220461 Dipole_moment: 6.559
 S          -2.40722971050115    0.55229924497079    0.29333966046320
O          -2.70330364201550    1.36747795647985    1.43394423014807
O          -1.31565682737719    1.04121543107226   -0.54421851521568
O          -2.21598013791214   -0.87417594250131    0.58811306795836
O          -3.70518293627047    0.60475712028193   -0.64136570555028
H          -4.32588599645495    1.13984558728833   -0.15500421674900
O           2.03703905977156   -1.64371670248085   -0.03878734524761
H           2.27986198605640   -2.41382199302553    0.47577514896696
O           1.20994756717698    2.02717344179747   -0.41918071099033
H           0.24657721800147    1.91035185309615   -0.41195480936035
H           1.52408691459509    1.51394901700439   -1.18084499693192
O          -0.61661107758775    0.00713434593039    2.57617751314935
H          -1.14474202199724    0.81273117370709    2.63009682887958
H          -1.15921138889324   -0.57752939314785    2.02675080633192
O           2.20217710663171    0.09250160401409   -2.21166996891344
H           2.37220315929464   -0.55405939898530   -1.50975736038451
H           3.05774273823857    0.40312147539320   -2.51146760013215
O           1.86202303937493    0.33327072434486    1.53777609947822
H           2.01343345977956   -0.86056420825684    0.62720692378737
H           1.70760346351094    1.08866032016406    0.92357020215415
H           1.02683330267488    0.22985762759163    2.03725941360591
N          -0.37089494534708   -1.27567986997713   -1.13315043120246
H          -1.15172846540360   -1.46093492688414   -0.44047269122712
H           0.57235655211564   -1.50533216343867   -0.72076624911931
H          -0.50683733678290   -1.72670707068947   -2.03100053824073
H          -0.48862105068009   -0.23182525375126   -1.20036878566107
