    26
        -50.46163583  Gyration_radius:  2.5572305319 Dipole_moment: 2.258
 S          -0.72879591754989   -2.03306522864712   -0.87510490939124
O          -1.17047603725709   -1.74162179175142    0.48810220088064
O          -1.57110292055954   -1.39536416256721   -1.86962314636683
O           0.68505076749194   -1.77609277889307   -1.01886232778309
O          -0.93383559199339   -3.59611074837653   -1.08865612509050
H          -1.85264968457993   -3.64591562736774   -1.33234156159311
O           2.17826890562049    1.14885070167877    0.21961052997736
H           3.13137269327613    1.23929416568219    0.20537126244007
O          -1.30319171194390    1.16783222255569   -1.62162467904165
H          -1.98509302715798    1.57579783592526   -2.15790224706695
H          -1.45409629531782    0.18976530530105   -1.68509998687755
O          -0.32909421543357    2.36800322055805    0.67379496439314
H          -0.76418048035320    1.97111090807283   -0.10026905249562
H           0.61496698346174    2.19837834179106    0.55061572146785
O          -0.83774137893071    1.07543126828430    2.91886660905917
H          -1.70812469464126    0.68799840475088    2.80453801428336
H          -0.72020918477051    1.70268278876834    2.16028008121631
O           1.33720875842758    0.52642294788732   -2.13837227005142
H           1.90549774056545    0.94428207823355   -0.72898280109089
H           1.17268180464745   -0.41052372545420   -1.90071859653433
H           0.45378185994621    0.92793675641053   -2.16926239923522
N           0.80176503143685   -0.63487670390332    1.74328844496333
H           1.39295410349591   -0.05186005509782    1.10823944026483
H           0.05799154893047   -1.15356025248425    1.17409784909673
H           1.37124577125953   -1.29620702926225    2.25869744491018
H           0.25580514191960    0.01141117790191    2.38131756966126
