    26
        -50.46463330  Gyration_radius:  2.4714601061 Dipole_moment: 4.120
 S          -0.22375737975212    1.17175543045161    1.46327152724561
O          -0.33786838010531    0.35815357979131    2.64755182600983
O           1.13700768820801    1.16375927421546    0.89983380899735
O          -1.19401562062381    0.91667465457510    0.42775537565149
O          -0.46711836229417    2.66959486782027    1.95020877163077
H          -0.37965020190697    2.58876475160558    2.89431363741548
O          -0.03280044369498   -2.05302455234519   -1.28046079141761
H           0.34956739157518   -2.90350672676974   -1.50064455215125
O           2.62793815430352   -0.91093013955583    1.65749494366592
H           2.79193246822579   -0.83526864601209    2.59911597841119
H           2.17815236477141   -0.08064304402698    1.39602821142290
O          -1.41654445125645    1.66520023861954   -2.25838032203830
H          -1.95810309758639    0.84071490334204   -2.21598667190569
H          -1.56477166854088    2.06674220508005   -1.39376265536613
O          -2.47004468127448   -0.63314040342397   -1.44356738691932
H          -2.26556455696079   -0.21488025684860   -0.59265883679608
H          -1.79916540249311   -1.32122505556844   -1.54432082913451
O           0.13652769949325   -1.90772518708590    1.30311978697785
H          -0.05710851667088   -2.01472957221538   -0.28066697087837
H           1.10117829807005   -1.80756449451711    1.42801385813654
H          -0.24475795663978   -1.17403611882060    1.81662608832842
N           0.84185022354897    0.48301119132541   -1.61349926557310
H           1.00940629515217    0.79855184259248   -0.61548923595698
H           0.59771330045945   -0.53242684463833   -1.58514491837802
H          -0.01943074552424    1.01371885570273   -1.96942065381619
H           1.65942759151579    0.65245922670675   -2.18933073356211
