    26
        -50.45862464  Gyration_radius:  2.50364219405 Dipole_moment: 5.104
 S           1.25462802297930    1.63170135508051   -0.08972865313659
O           1.17450479766853    2.06690906063047   -1.45829422355290
O           0.04523760887015    1.85279875703249    0.69365402559043
O           1.70407063714579    0.24942141960774    0.05938557572644
O           2.37575161573178    2.53541186189801    0.58120920427909
H           2.75317091457518    2.94221193655177   -0.19135056970973
O          -0.82621214104862   -2.16798794104992   -1.29339364212563
H          -1.66507268486871   -2.49251917010286   -1.62287330606393
O           2.05557140179287   -2.51630362678115   -0.56049329303333
H           1.33018180431380   -2.60799103832575   -1.18581499395446
H           2.25843093146092   -1.57368403034372   -0.53224716359407
O          -2.41568615384888    1.57294093138900   -0.35026204075642
H          -2.82075400331451    1.10911469379688    0.38618537406300
H          -1.55772517307926    1.89239621614424   -0.01558605636559
O          -1.28529581403297    0.39595922270155    2.43689725545394
H          -1.18318579526315    0.77336827580644    3.31155067353486
H          -0.80223891870653    0.99963890882314    1.82365195631610
O          -0.73467173516646    0.30225707781135   -2.09476819396657
H           0.01832151894250    0.91306907940427   -2.00674119254257
H          -0.72496462381620   -1.24910738052018   -1.66704199978690
H          -1.48243997141398    0.75446753389574   -1.66338419633778
N           0.08807324005032   -1.49636932737490    1.11738647950354
H           0.62212730789975   -2.24647971029946    1.54707729856992
H          -0.55246699210219   -1.00607075421779    1.77055924773574
H           0.77542127398096   -0.77021280099871    0.73811393569900
H          -0.40477706874948   -1.86494057056046    0.26630848845737
