    26
        -50.45538155  Gyration_radius:  2.56576322186 Dipole_moment: 4.103
 S          -1.04477061074794    0.05321511834524   -0.10575624048538
O          -1.09725399854722    0.96227826576743    1.03672639239892
O           0.30257524374044    0.13104436435806   -0.72287766528081
O          -1.38374916967193   -1.31092926963703    0.21760169537947
O          -2.03590837920110    0.60558262026996   -1.15333962633801
O          -0.07858763139265   -0.94302556799313    2.56844469472637
H          -0.40083677478874   -1.59208036958422    1.92866702147463
H          -0.54571560600936   -0.13382032239516    2.29320300907156
O           2.38591414495416   -0.08797940503126    2.42455815064884
H           1.49198340384110   -0.52417043628729    2.49660766945517
H           2.53057418741576    0.36090586479317    3.26000032110682
O           0.35187871805002    3.09001979329636    1.28380909329808
H          -0.31254417650790    2.35245620905215    1.27229065188670
H           0.00960858224816    3.76780502917098    0.69815088450149
O          -2.49093538828643   -1.66378041961659   -2.20655594990136
H          -2.33040602978828   -0.20623248825429   -1.68068673986313
H          -1.63232501996635   -1.77262083848583   -2.68567555651993
H          -2.31702742105744   -1.99818049326820   -1.31355936808094
O           2.06030551218169    1.42025662945806    0.41203520623950
H           2.28968635490749    0.81693123055672    1.22071910163586
H           1.33350778681973    0.84637804799939   -0.14108385653586
H           1.50485203634910    2.19973408123540    0.77516790311913
N           0.08362217235256   -1.65385872360303   -2.98535127250277
H           0.28375327755602   -1.02921298867100   -2.20471102160897
H           0.40325716132812   -1.20002270125920   -3.83180146482552
H           0.63854162423948   -2.49069322022945   -2.85658302302099
