    26
        -50.46698828  Gyration_radius:  2.50092454791 Dipole_moment: 1.327
 S           0.35124238122875   -1.13505823757554    1.55614795405091
O          -1.01830641663918   -1.57405277469278    1.69095760174862
O           1.04414676732276   -1.79547830181352    0.46071878912630
O           0.47491367302547    0.31449313265894    1.46658781191151
O           1.10023958106118   -1.54382573582379    2.89151395520430
H           0.77952451655331   -2.42553874869077    3.05258186355645
O          -0.47328455246714   -1.82738886498985   -1.71728797012854
H           0.01608297923719   -2.05473378111267   -0.89995371512351
O          -3.25427390165687   -0.27783231487030    0.94809399212598
H          -2.49280525421701   -0.75607724788640    1.33715985642738
H          -3.93843404905316   -0.93674388214335    0.82209432405520
O           1.83750859065753    2.34305044101085    0.35609107407099
H           1.38963724597663    1.60966583186559    0.82203047822378
H           2.05076684246498    2.99223312875554    1.02718711357812
O           0.29182702015641    2.22156688312776   -1.94157530253272
H           0.77775170554811    2.58943214802645   -1.18450216737420
H           0.84149303433115    1.46854545786756   -2.20993532927618
O           1.89853835892817   -0.00365799000837   -1.41600082190983
H           2.40207004514109    0.67313093677036   -0.95337827031989
H           1.69640682637010   -0.67503440591201   -0.73974233877499
H           0.20758524534339   -1.63113425604991   -2.36792160633185
N          -1.22048938291648    0.50287602008104   -0.61339493982259
H          -0.60889730755505    0.48415728237288    0.23144277940738
H          -2.19677107787399    0.52105656339265   -0.27727789773181
H          -0.90470411380480    1.31188729382511   -1.20590621043797
H          -1.05176873716073   -0.39553857817781   -1.13573102372417
