    26
        -50.46843461  Gyration_radius:  2.53684739556 Dipole_moment: 4.838
 S          -0.69672447467349   -0.27957629737249   -0.53886044353846
O          -0.31410815260602   -0.26720936678009   -1.93550850297161
O          -1.31227970021624    0.98447138831300   -0.13702359111493
O          -1.69422147290587   -1.42160362617962   -0.32544523287684
O           0.48165393223599   -0.55751704503672    0.31314741479130
O           0.39759702041361   -2.33338093702809    2.30639501007191
H           0.48618016119756   -3.18158927658156    1.86847373802542
H           0.52662657914322   -1.65292133233471    1.61435674719183
O           0.15723228373541    2.55393914516170   -1.61121451447931
H          -0.01404298649997    2.19246766600080   -2.48567712408353
H          -0.49525963280373    2.09717389609787   -1.02801287228805
O          -1.91587900360659    1.18335914025323    2.41570076577635
H          -1.63847916475493    1.19197556548807    1.47266452761535
H          -2.72193368973855    1.70079962490516    2.45798437662526
O           2.13724916930049   -0.47332878929676   -2.85308494367280
H           2.47110415517400    0.55368663858823   -1.55337841077144
H           2.35734006736795   -1.40138891000723   -2.94388151264280
H           1.17366656180615   -0.44389578935936   -2.63869043792964
O          -2.15036456619949   -1.46958910691868    2.15921454636036
H          -1.30099655258808   -1.85318542320787    2.46084325401649
H          -2.11830376873733   -0.52287740955233    2.42220003727472
H          -1.94520035472386   -1.45387465139720    0.67448771172021
N           2.16094820826281    1.10056893788458   -0.71800684879612
H           1.48251515815216    1.84410381095835   -1.06396374513357
H           2.93042470615486    1.48627836025823   -0.18213937219366
H           1.55525549711757    0.42311379715927   -0.15058056680874
