    26
        -50.46178315  Gyration_radius:  2.41391808601 Dipole_moment: 10.258
 S          -0.95376334464086   -1.15042831964183    1.09157905788374
O           0.47220069507985   -1.49086172141871    0.94178497999863
O          -1.13861670820396    0.27536715112131    0.80615001562799
O          -1.83196974697059   -2.01168210839043    0.37599667232305
O          -1.25594864620662   -1.30447865258539    2.63682443705835
H          -0.71473074133821   -0.64171212466454    3.06608472865439
O           1.37438739304274    1.12803566498093   -1.69103698903960
H           1.97780956123039    1.33433510132410   -2.40594686246898
O          -1.73766654592484   -1.35044212010963   -2.29850065698134
H          -1.98632126369860   -1.69855750634020   -1.42734885480965
H          -1.86857484370532   -0.38389797333887   -2.24770447603393
O          -1.52115076839346    1.31069097392818   -1.67303264210835
H          -0.59107266937333    1.48922975115082   -1.85764872450780
H          -1.54030902213612    1.02567768104833   -0.74483390457118
O           0.10120329292970    1.43700961491937    2.69839655851020
H          -0.47444610462158    1.07576843767756    1.97007310607142
H          -0.33165893407629    2.23205129894483    3.01402807282996
O           0.82760717955140   -1.37374586288736   -1.76650962687476
H           0.74370524490001   -1.64483680796590   -0.83869270028340
H          -0.09148826593556   -1.46117643879398   -2.13603438750517
H           1.14428213671756    0.14301279231639   -1.79609514130795
N           1.91107403248691    0.63525389364797    0.86120139665779
H           2.89601848127711    0.49997348453494    1.06267712427610
H           1.76257011142554    1.00226188439671   -0.11756586553155
H           1.37624993924411   -0.30620028740990    0.90254117462317
H           1.45060954746182    1.22935221370923    1.57361349739445
