    26
        -50.46843401  Gyration_radius:  2.5351637302 Dipole_moment: 4.825
 S          -0.33218172563742   -0.78487459112170   -0.36551067907067
O           0.23288866513247   -1.40859224217845    0.83032201314400
O           0.40227192387782   -1.15366440551231   -1.55787575800231
O          -1.78451190387916   -1.23820853822440   -0.53758845316861
O          -0.34508155891991    0.68676103937133   -0.20557470863522
O          -0.88618476399468   -0.68119068012035    3.09668650874984
H          -0.86295432832096   -1.45368981199582    3.66410796738369
H          -0.38284454153292   -0.92453694340001    2.28808099559783
O           2.73794377632667   -1.28433898178249    0.11991938543803
H           1.84492084094876   -1.43386930888075    0.51314812797241
H           2.71357446546185   -1.76689899155859   -0.71152107270212
O          -2.58565173747588    2.02789201304190    0.35604011144257
H          -3.04419575572475    2.07964045476297   -0.48428562467194
H          -1.71084453819937    1.63120625409367    0.16663234472062
O           1.73040698543603    0.50047222094577   -3.10487576960126
H           1.13034384708761    0.86427074274157   -3.75717936924022
H           2.19117933299953    1.16897615633562   -1.62188501375361
H           1.22478969236009   -0.20805729931505   -2.63829490648183
O          -3.00904298618244   -0.37628900793345    1.49727171513868
H          -2.34200934065442   -0.44211016549997    2.21649764112172
H          -3.04450825388616    0.57335340433214    1.25991688952701
H          -2.31899152838880   -0.94473157288008    0.29449339085619
N           2.15431648655250    1.18476401725848   -0.57729857203987
H           2.60465864758126    1.99746412062137   -0.17147291452418
H           2.56886401784474    0.26599286321922   -0.23518296577338
H           1.11284427142398    1.12025925360850   -0.33457129350830
