    26
        -50.46178311  Gyration_radius:  2.41363618979 Dipole_moment: 10.258
 S          -0.96049373016070   -1.03679389984041   -1.19417039588039
O          -1.66160174499754   -0.75419863349267    0.07076077459414
O           0.05658507481556   -0.00546443867286   -1.41889914870112
O          -0.47823115822195   -2.37120224097319   -1.30278747397416
O          -2.04051243768594   -0.80494241464628   -2.32668951986942
H          -2.26319822618854    0.12479146785923   -2.27541609205485
O           1.20193110203273    1.00991358020737    1.88587833268588
H           1.56078153034162    1.21853112697502    2.74932282410918
O           2.57937348789349   -0.08421631473867   -0.42200899485410
H           2.39012124474541    0.41044262342377    0.38452863120441
H           1.75961700585288   -0.03791304008873   -0.94064777209795
O           1.78469556545517   -2.62099130153957    0.25102396115554
H           2.29671366612675   -1.84651598935411   -0.05232686214327
H           1.07779767058068   -2.74512824212355   -0.40230715211925
O          -1.30403849817337    2.11106020697696   -1.78730880122214
H          -0.94048119443811    2.69282659388525   -2.45695572394583
H          -0.69236148536537    1.32635726907226   -1.73769048740588
O           0.23387677707639   -1.36114446021487    1.94521395675393
H           0.87287249863504   -1.95022863698470    1.46171643873828
H           0.88309343569701    0.04574927524190    1.94245967591920
H          -0.54966269421674   -1.33140569573662    1.37375227944643
N          -1.16735216362547    1.63688009143142    0.86838346707109
H          -1.43639254725181    0.62442066258007    0.59183857519412
H          -1.18433005232464    2.16491480871680   -0.02222279819428
H          -1.82510940918735    2.01355118037386    1.54257227725560
H          -0.19369371760987    1.57070643211227    1.27198005823024
