    26
        -50.46169746  Gyration_radius:  2.4891682649 Dipole_moment: 4.333
 S           1.93174867390164    0.28395795663649    1.07479919022724
O           1.97449253052639    0.13691084345639   -0.38442762330571
O           0.84075538980397    1.17294783362616    1.45780768495082
O           1.93134041412691   -0.97363831355356    1.76429272013364
O           3.26074299342579    1.04712336688568    1.46770154533318
H           3.10524931040710    1.90970664008959    1.09598518975136
O          -2.55651616323660   -0.61603960625671    1.66762693494126
H          -2.53663101831087   -0.48526020450289    2.61700519269537
O          -1.32046911683093   -0.11887461552222   -2.20250582587658
H          -0.59201000324943   -0.74978886901300   -2.01782035062100
H          -2.11504317444273   -0.64828409454426   -2.29046674350797
O           0.60343265372305    2.13078568189743   -1.57511662447798
H           0.25975141306549    1.71724660576549   -2.37039501141722
H           1.17609557758152    1.46116688902182   -1.15908413067581
O           0.62610961400855   -1.79058819306169   -1.42979231883753
H           1.22774182659371   -2.36466504093099   -1.90602396850684
H           1.19316767708677   -1.08358378657442   -1.01650536632065
O          -0.42276871395279   -2.05923097207835    1.13839449885218
H           0.40740565082547   -1.72302939068577    1.53087879459612
H          -1.81280985961688   -1.24552131342661    1.47578039690502
H          -0.21310685188956   -2.18393571693929    0.20178608652286
N          -1.41348456754283    1.24931122198763    0.16484739588972
H          -1.32333264723942    0.84352507660914   -0.79314779267909
H          -0.45105111762628    1.26943552908168    0.62495418210451
H          -1.76577842122969    2.19835665745315    0.10317626686068
H          -2.01503206990373    0.62196579469244    0.76024968625659
