    26
        -50.45648584  Gyration_radius:  2.49225404512 Dipole_moment: 7.657
 S           0.33219993335658   -1.28936941733785    1.43230820429231
O          -0.34546617857011    0.02254452248887    1.49318865351078
O          -0.01569884618841   -1.98685104021989    0.21139724437455
O           1.76339015808955   -1.12623237984384    1.62530947779610
O          -0.20553823474062   -2.11211988474840    2.64659537939371
H          -1.15246485226974   -2.23189637351076    2.42693420247624
O           1.52866305432766    1.68748729270186   -1.31465354953480
H           2.18747053897328    1.94441210821566   -1.96109681845170
O          -1.26711129306096    1.55523349816686   -0.52113145835486
H          -0.42029243086312    1.87487567465982   -0.85542144651921
H          -1.04774489282796    0.95891908632846    0.21949770094135
O          -1.79921515549550   -0.03909394698865   -2.62610774659270
H          -1.77624266584626    0.54431378830304   -1.83686663961673
H          -2.19854100794276    0.47000944853879   -3.33215127430927
O          -2.46958259948802   -1.99779634431558    1.27333596534281
H          -2.69522374516564   -1.06526922508118    1.22042380716440
H          -1.80262213603583   -2.14854844821350    0.58148474681793
O           0.77055441542896   -0.66920867973384   -1.97062670173904
H           0.59442791359260   -1.23965392284957   -1.19542596154064
H          -0.10752056129720   -0.56488951408275   -2.38664281686741
H           1.25110688633411    0.74262936941816   -1.57330851055610
N           1.81173483383558    1.38608855190522    1.29915224860453
H           1.85529811671506    1.61597742195462    0.27033803077216
H           2.26498508568475    2.07243382024358    1.89135942526078
H           0.79921335505474    1.21365472076104    1.53186693997109
H           2.14422030839368    0.38234983324077    1.45024089736461
