    26
        -50.45911315  Gyration_radius:  2.43555787444 Dipole_moment: 3.781
 S          -2.03655948520330    0.00355223212423   -0.72820103640633
O          -1.67630318170137   -1.00702367122575   -1.70033140137886
O          -1.71982822140735   -0.41041557908800    0.63086546508346
O          -1.50258361779230    1.31884336228707   -1.03505673078900
O          -3.61202159635837    0.15017503949404   -0.80934855649125
H          -3.89407847790131   -0.74842863041188   -0.94357195535055
O           1.99016828090018   -0.58638919720747    1.64522178517414
H           2.67042818236699   -1.07456303041004    2.10910855161450
O           0.11941806967386    2.47401106853318    0.49243809239640
H          -0.60793315684113    2.11411546400562   -0.13793909730834
H           1.01085868738152    2.06197852503045    0.09486867932045
O           0.71733767060152   -0.10300054097630   -2.30869745303385
H          -0.17609219103702   -0.45943900333712   -2.10733349440459
H           0.57565182149703    0.55172009094258   -2.99534403649641
O           2.07910850008673    1.19712218984997   -0.39595737852793
H           2.22116479524187    0.56497396026341    0.33582678612989
H           1.65880649114224    0.68350552365911   -1.12302713142998
O          -0.21190679388341    0.86277531897069    2.37904842304730
H           0.61213847739106    0.34187686398375    2.32663693891159
H          -0.02704650459975    1.92881982763394    1.38459823002087
H          -0.88084120179113    0.33910322578020    1.88397965111090
N           0.50706341319535   -2.13670974886017    0.14684237284535
H           0.76327095566218   -2.03363955495684   -0.82824237869435
H           1.45748508193133   -1.25362037645837    1.10238051435714
H          -0.38661260460640   -1.65764009102378    0.26266373333160
H           0.34890660605185   -3.12170326860303    0.31857144696618
