    26
        -50.46796619  Gyration_radius:  2.39142881399 Dipole_moment: 2.394
 S          -0.75741852180694   -1.46268104772099    0.77750898291536
O           0.44944378885005   -2.25490067494760    0.85882779689073
O          -0.85589191419827   -0.48867776480764    1.86903664455892
O          -0.97787853310115   -0.83582530250051   -0.50470726289204
O          -1.96850181115378   -2.46581354208763    0.98190863308543
H          -1.69377621570118   -2.98836421294619    1.72865809725675
O           1.80891047174851    1.20827304389150   -0.06836236962755
H           2.02693228682040    0.91313725102934    0.84048820450459
O          -2.33641571099649    1.45162160011552   -1.47017943043423
H          -2.51821666311396    0.53283162644544   -1.23760099221321
H          -1.65593461758591    1.38401160780209   -2.16827193817592
O          -0.03508136157173    0.64274870778792   -2.61223048268090
H           0.80211313093100    1.03632645337835   -2.35470738113975
H          -0.25173940615414   -0.01463139499127   -1.92796299674048
O           1.79173393939844   -0.14467976926301    2.25273932780750
H           2.13252039759869   -1.00942055271841    2.00717973730614
H           0.82646888150473   -0.26550127046799    2.29239293932154
O           1.85070414615750   -1.24881114047725   -1.15413836351804
H           1.89457198576134    0.38119877724293   -0.58845606211865
H           1.38647878266765   -1.71037917464008   -0.42606702564332
H           1.42024226448544   -1.52323716015730   -1.96624627938142
N          -0.67666419054260    1.80120350427857    0.57954584298177
H           0.31848299461752    1.66802511156581    0.21509736978869
H          -1.36777095356220    1.78526438740867   -0.22467921235878
H          -0.86140047361301    0.95404831799780    1.17643074099730
H          -0.75191269744025    2.65423261878148    1.12379545950798
