    26
        -50.46600639  Gyration_radius:  2.60590436332 Dipole_moment: 3.826
 S           0.12664867540095    0.35417813876922    1.80382003236057
O           1.43350768201568   -0.22018076367588    1.51421424164816
O           0.06884926866278    1.75663568118546    1.36903107519350
O          -0.96522970803695   -0.41416599138209    1.23613755756353
O          -0.06758473348704    0.34412673960537    3.35594435726379
H           0.68195852450766    0.88222405943728    3.67837938493073
O          -1.84717516150822   -1.51071551992750   -2.57971079849402
H          -2.02248537296130   -2.22711878143399   -3.19029078799409
O          -0.02595600427295    0.42945274149063   -2.60822014410410
H           0.69922344001964   -0.00014863077100   -2.11551715556944
H          -0.65701592758220   -0.29310695430171   -2.82273461751704
O           1.73555158758173   -0.89259516264602   -0.98239074051113
H           2.67635864004774   -1.01006301626408   -1.12346992365664
H           1.63384557557883   -0.62573103264201   -0.03397389867920
O           2.11613111594147    1.83450782731970    3.17695696044467
H           1.57394264814941    2.33741566108363    2.55414550629228
H           2.43799039604625    1.08141640083607    2.66333670972864
O          -0.53872820388880   -2.44919378104512   -0.48499093700943
H          -0.77083610420872   -1.86674393214772    0.26084490238472
H          -1.45114997236240   -1.92995301735372   -1.77267024836524
H           0.36338506512184   -2.18905474066314   -0.72169998524838
N          -1.46980314191451    1.34744468691813   -0.65688000277020
H          -0.87633385370720    1.07344596365578   -1.52469669267943
H          -0.84052462615785    1.78355170963332    0.07801261833825
H          -2.26565438751661    1.92773149588988   -0.89853525749039
H          -1.74891541146496    0.47664021835426   -0.17504214602799
