    26
        -50.46862835  Gyration_radius:  2.47522812824 Dipole_moment: 4.007
 S          -0.84252937719962   -2.05657823354303   -0.32767720041502
O          -1.27830194105284   -1.89339143297906   -1.69919885311869
O           0.59352940668921   -1.76612991944140   -0.17745048847464
O          -1.61878496485571   -1.34585692873598    0.65140378879481
O          -0.99261536542131   -3.60697169278389   -0.01776081676814
H          -0.85389305017778   -3.98022352396312   -0.88181641259267
O           2.02223620335131    1.82744622420362    0.12354446941854
H           2.81436209049597    2.32723377369363   -0.07399727104201
O          -1.27624686265379    0.68710070555372   -1.96627916390709
H          -1.34169117844423   -0.29353949813066   -1.85695196394535
H          -2.02155040514421    0.94377281343674   -2.51214436688836
O          -0.79173152391491    2.29223450076726    0.24409328150060
H           0.17272606784848    2.35322862060572    0.21661426856162
H          -1.04322065377275    1.74785325463655   -0.52151350321400
O          -1.25650990348587    0.69469994273980    2.32572922173140
H          -1.65716970487486   -0.05904813049921    1.85339240266299
H          -1.25677213468883    1.42556716273614    1.66421273404820
O           1.43166617468828    0.19380434999299   -1.80767317719320
H           1.85445033738199    1.23486052970274   -0.66835609501702
H           1.22248450809753   -0.62727935668560   -1.31955355769150
H           0.57353902142436    0.50314262327080   -2.13619464198058
N           1.13509902573024   -0.12461873002472    1.79879923734697
H           0.93262691071388   -0.85816260186407    1.06066178162771
H           1.61825600449162    0.66362701849515    1.32750633668267
H           0.16396151374368    0.22880164289961    2.15194333758774
H           1.69607980102293   -0.51157308407968    2.54866664228976
