    26
        -50.45718269  Gyration_radius:  2.69463229782 Dipole_moment: 3.799
 S           2.02953486466534   -1.25151571354424    0.14552512412138
O           1.37231233746252   -2.29956501251019    0.89975434377087
O           2.12873895662853   -1.58446476480563   -1.27664697760615
O           1.43303767181587    0.05450673717581    0.34872231609020
O           3.51364158047071   -1.15692546668835    0.68952451599901
H           3.79038086213349   -2.06739424337605    0.66427720620635
O          -0.55049794033661    1.09084129595343   -1.13331603149037
H           0.36869304670358    0.98699998409063   -0.82038582854239
O          -1.00989244687484    3.64238654186721   -0.20594646190350
H          -1.82247448917451    3.98867639355245   -0.57697934863149
H          -0.80131953608625    2.82490659746204   -0.69714770969012
O          -1.05838412322055    2.52961524074341    2.29063696120785
H          -0.19146528800960    2.67038427191556    2.67523191053138
H          -1.06452235994574    3.03459725615161    1.45274965530935
O          -1.17013040017433   -2.50211198592785    0.23341293092357
H          -1.50655396799692   -1.74424498961221    0.73692392298457
H          -0.25199044661652   -2.61903524087936    0.57021077490443
O          -1.12743130510933    0.04863548580807    1.23268595908838
H          -1.25380193887706    0.85701948568496    1.77203364784606
H          -1.05578348775638    0.77969163812878   -0.34312771654601
H          -0.15993177634512   -0.06799251108071    1.17488941413297
N          -0.34174020420020   -1.44793755709406   -2.00292331205763
H          -0.62010353890322   -1.83234842791895   -2.89882903881950
H          -0.55311636851818   -0.42761047599423   -1.92394389366210
H          -0.80931935849259   -1.95308698902592   -1.17469818185676
H           0.71211968672429   -1.55402752025055   -1.83263420231323
