    26
        -50.46843446  Gyration_radius:  2.53630863388 Dipole_moment: 4.840
 S          -0.64331357967075   -0.59532170608964   -0.30179057982760
O          -1.01179688364219   -0.31003980603899   -1.67292005388690
O           0.43885674103245   -1.57579353691137   -0.22696560103028
O          -0.24166796956682    0.64990789477299    0.39085035807686
O          -1.87668202110589   -1.14275104607587    0.42191994953224
O           1.33523377675778   -2.06573099602953    2.19705976855980
H           1.57412585215726   -2.99418834941052    2.20907089731282
H           1.09240531264589   -1.86097521135353    1.26678771636225
O           1.74888897596313   -0.78861261600280   -2.33902387212190
H           1.07026973584864   -0.87469968669289   -3.01484456552009
H           1.35550642355982   -1.22151307724757   -1.54380935760917
O          -1.14447332197679    1.27811275403583    2.82481071411587
H          -0.74463462695396    1.13271573479212    1.94308682046986
H          -2.02496802478539    1.62265747540687    2.66654289480202
O          -0.79391545490667    2.01888318779650   -2.86521060002791
H          -1.58629253952689    2.52983933699492   -2.69491359516260
H           0.67446548225748    2.05888007977128   -2.02889486986019
H          -0.97649659686994    1.11305225049900   -2.51671595952134
O          -1.18066669248437   -1.41653948661683    2.83544487233276
H          -1.16549283605160   -0.47285598480016    3.09763596339686
H          -1.62837633634874   -1.31135722909960    1.40864415087016
H          -0.23742939746316   -1.68725834963413    2.77671877227351
N           1.36253729868825    1.62751965184618   -1.37061223782756
H           2.12056762344669    2.25109709629186   -1.11648249325010
H           1.70141913519127    0.72361737146792   -1.81883462759873
H           0.78192994380181    1.31135424828863   -0.52755447487139
