    26
        -50.45906544  Gyration_radius:  2.58532813055 Dipole_moment: 3.271
 S          -1.08545486458089   -1.74707291846074    0.37800557677828
O          -1.58571137296744   -2.79797866119147   -0.46716055656574
O           0.34600077890851   -1.83442747555098    0.63022316086857
O          -1.48321451751158   -0.40250831259902   -0.00342131352893
O          -1.78247073168663   -1.96541203024826    1.80895604239319
H          -1.98271889326309   -2.89584044239292    1.80389556068632
O           1.57383428539726    1.75672720835171   -1.22434867717965
H           2.29285719149382    1.72497423634672   -1.85614507635328
O          -0.00781902544837   -2.17022640493776   -2.53211696766945
H          -0.37538283781815   -2.64614281115327   -3.28031965670553
H          -0.52838484777404   -2.45263597375588   -1.75524076029300
O           0.81328927088184    3.20900429345394    1.20875107625570
H           0.90710034443299    3.08658776002364    0.25799997580629
H          -0.07518289851251    2.91968740904018    1.43853703908966
O          -0.96277874849854    1.08134011190838    2.07629674972359
H          -1.26434620660120    0.59263677601385    1.27548941570993
H          -1.35996111351869    0.62180219463083    2.81757129105396
O          -0.42037350802347    0.49729864896545   -2.29463715304530
H          -0.97577693702159    0.32826918721643   -1.51301216434789
H           0.78661703154759    1.33067132984682   -1.67915234179915
H          -0.14233700985971   -0.39844983719451   -2.56696426327569
N           1.48858901531862    0.43153177385462    1.10518346019236
H           1.10406514383589   -0.54243240260680    0.88689922576215
H           1.62942000935346    0.95936413024431    0.20498962150293
H           0.74025951165417    0.92109928794701    1.64067421196106
H           2.34988092074409    0.39213290177594    1.63904652185153
