    26
        -50.46843431  Gyration_radius:  2.53603361336 Dipole_moment: 4.840
 S          -0.74565393995088   -0.50246894153582   -0.22770113739100
O          -2.03640321502372   -0.73837811364042    0.56161921837395
O          -1.09447615020046   -0.31021660912693   -1.62001401849240
O          -0.11319507830278    0.72065249360975    0.31600472975141
O           0.14898913478561   -1.64517878164415   -0.04863516195678
O           1.01084631112512   -2.00808844648108    2.40988090727171
H           1.08538562097556   -2.95668273402426    2.52767034063250
H           0.78233115455083   -1.87033232178201    1.46374025207871
O           1.51964718749935   -1.34241982431487   -2.24527141083041
H           1.07778530833651   -1.60785464120840   -1.40332563571869
H           0.81811789352206   -1.37950094508795   -2.90193633906187
O          -0.83164624874121    1.76834170671771    2.66581960261707
H          -0.48522873489515    1.45649901366462    1.80487712997739
H          -1.64259235523221    2.24192987339351    2.47302386901291
O          -0.50012409156500    1.79537188444130   -3.07167936570795
H           0.97335644115023    1.66694955605965   -2.25352979073452
H          -0.83044545277034    0.98113796570561   -2.62093053043561
H          -1.18575202180678    2.45479445174584   -2.95744154944329
O          -1.33595547324084   -0.85978614743059    2.98635326587926
H          -1.79578703588282   -0.83709200561301    1.55960001502069
H          -0.45602038544578   -1.29684717600270    2.95269379226356
H          -1.15000586016381    0.08970645424321    3.13883400847489
N           1.59179963646487    1.19569775595529   -1.55470014135233
H           2.45431140169686    1.69848838480975   -1.37786498182792
H           1.75394226576289    0.20183157469409   -1.89940787679703
H           0.98677368735594    1.08344556281598   -0.67767919161542
