    26
        -50.47168702  Gyration_radius:  2.49102032969 Dipole_moment: 3.009
 S           1.90577460387671   -1.17145023826515    0.54585523165616
O           2.52523838400656    0.12366697950293    0.80565879476181
O           0.57405963998155   -1.23030601779306    1.14384370912591
O           1.91204240564652   -1.55061463763707   -0.84403527230104
O           2.78968631513106   -2.23586253978315    1.31373734023619
H           2.84619889145558   -1.84224231044290    2.17762301774831
O          -0.99423979641817    0.68737724961201    2.19376810124463
H          -0.48215855315149   -0.12281949149737    2.00372114060408
O           0.17344954422335   -0.65118690569976   -2.53553609850506
H           0.87437835266284   -0.97874752379595   -1.91577869618780
H           0.50166681065515   -0.82321743500457   -3.41913407419912
O          -0.73508478678453    1.69153028157122   -1.48926234776943
H          -1.54473903852606    1.38474925560623   -1.04213206469833
H          -0.39708910738235    0.91121209165025   -1.96901442167035
O          -2.67415269745323    0.45820059082738    0.02717957186373
H          -2.27100633736780   -0.43461105072529   -0.18369421880220
H          -3.62279586281244    0.34918617221649   -0.04033717994032
O          -1.43339543606023   -1.75781040819737   -0.53865607846641
H          -1.74964136201701    0.65235039843039    1.57916157728214
H          -1.02070603971377   -1.57245019724720   -1.39486785829317
H          -0.69970105966751   -1.71677045589119    0.10855178641667
N           0.71675455105831    1.99605540645807    0.69419239639149
H           0.01887754060051    1.63937751906447    1.41579473341532
H           0.22235141227333    1.96692105389021   -0.24641226387406
H           1.04788674377708    2.92909063810008    0.91104877179621
H           1.51634486196378    1.29837156507388    0.69872438214231
