    26
        -50.46408435  Gyration_radius:  2.51032947031 Dipole_moment: 0.769
 S           0.13619845193705   -0.34078809412367    1.75150976620343
O          -0.88051301867161   -1.05566398201172    0.99128365793509
O           1.08020425213551   -1.20580289879843    2.40662742082353
O           0.72728021581250    0.72930020144307    0.96799353735075
O          -0.65256759888288    0.41461338652471    2.91824302837835
H          -0.72853208128961   -0.26795487168564    3.57601883345955
O           0.86499001182423    0.16921851854478   -3.02013260162111
H           1.81344359266116    0.30608523745098   -3.04480024424090
O          -0.96899791419943    2.87705112055326    1.19171756935930
H          -0.27366879974284    2.21448250458706    1.32386163728420
H          -1.52597095591841    2.81868816292297    1.96900413983529
O           2.71239871706468   -1.83778950077345    0.40336823593009
H           3.11022935045500   -2.67318830449496    0.65722759165836
H           2.19831287870469   -1.53908340236963    1.18092426154617
O          -2.60674447225242   -0.28997907693589   -0.85517520324859
H          -2.57934635019454   -1.01627376615054   -1.48250317636648
H          -2.12324917888470   -0.60860202460874   -0.06270979484372
O           0.54616685984390   -1.73495844228450   -1.20762915880998
H           1.42586848852580   -1.83463656974054   -0.79470465391473
H          -0.04518044056102   -1.56067583728969   -0.45575412593024
H           0.72656048254051   -0.62834830787980   -2.44832468643018
N          -0.59722397243177    1.43731217918470   -1.21541679431354
H          -0.03043694029163    1.14852562588767   -0.37498689217492
H          -0.05097372918727    1.16226757060239   -2.06870878782855
H          -1.49040254136511    0.88352236237164   -1.17673339540129
H          -0.78784530694894    2.43267821787466   -1.13020017421156
