    26
        -50.46361287  Gyration_radius:  2.49254450376 Dipole_moment: 6.639
 S           0.89361151920194   -2.17092745933486   -0.17050524917989
O           0.70592013682560   -2.45127266827190    1.23311272212644
O          -0.22028200031726   -1.47663228826012   -0.79465119435262
O           2.15541012701786   -1.47836269354027   -0.43680810058526
O           0.99613172486951   -3.58087323977602   -0.89028972456673
H           1.43794718115045   -4.09242126440944   -0.22092235784033
O           0.39032642023029    1.83061422711388    1.34255901101834
H           0.67489171462077    2.35208820218411    2.09396317323386
O          -2.42838998523223   -0.58759526191525    0.48612174158677
H          -2.42549608967330    0.30334281756579    0.10870304669515
H          -1.75610060137028   -1.08024210311433   -0.01840915478072
O          -0.42998154386898    0.68036988788103   -2.34956105204145
H          -1.09214425291909    1.18890279327688   -1.85755537923863
H          -0.47165773384307   -0.22529206465705   -1.98007595563082
O          -1.77222381967575    2.05644048739056   -0.32403538345178
H          -2.36011726396627    2.76498291052016   -0.06002989283220
H          -1.02223258849226    2.05474302109943    0.30297408366030
O          -0.48700531052481   -0.34650761406880    2.30903319067009
H          -1.34757867071253   -0.45654662293420    1.84465041760140
H           0.02211780511905   -1.14042082357009    2.04060681922329
H           0.07307350451533    0.93860869858482    1.73923921325318
N           1.71503881114079    1.01129545646157   -0.88291461170075
H           1.96606073033065   -0.02200965858199   -0.70492021411695
H           2.51988788830698    1.52702462652039   -1.21965834433233
H           0.91824402404831    0.99327324929572   -1.59479215667072
H           1.34454827321837    1.40741737453981    0.00416535225264
