    26
        -50.46361281  Gyration_radius:  2.49251381197 Dipole_moment: 6.650
 S           0.34611977219933   -2.32379128235416    0.13786051403325
O           0.48801351692567   -2.47347254627399   -1.29094596977716
O           1.60592735991757   -1.95767286792867    0.78734867408524
O          -0.72467617090522   -1.42770524360436    0.54088283324629
O          -0.04375577439539   -3.75731732684591    0.69427472951470
H           0.45494016756495   -4.31905828125821    0.11067561067008
O           1.10409143436203    1.76344263035516   -0.98754958764473
H           1.68019127012773    2.24672645564302   -1.58089205074763
O          -2.28016846066228    0.01442672884021   -1.13541562189773
H          -2.19311562258797    0.85842997101268   -0.67039471820749
H          -1.88361169453068   -0.64679567796400   -0.53990027016399
O          -1.32840926563028    2.38719378857753    0.10741581249574
H          -0.45598114728558    2.24786713118321   -0.31103483626281
H          -1.66317118633952    3.22698991312982   -0.20885104147808
O          -0.88955445536968    0.62896130458255    2.23113224081047
H          -1.27584859510238    1.30284654791044    1.65156858713593
H          -1.01836472849098   -0.22075373543078    1.76224015770003
O           0.08320751811231   -0.09561023618278   -2.38222094432317
H           0.72562926266822    0.99220973596167   -1.54923984060758
H           0.32712950802978   -0.99876229722616   -2.08806342563163
H          -0.87331899932000   -0.03102790030103   -2.16056666708236
N           1.58883074322176    0.53830787054513    1.38810041013279
H           0.64538469509377    0.66456564338969    1.87397987134775
H           1.65840542476497   -0.51363303967484    1.16230503932231
H           1.55850461990854    1.05735495376453    0.48770014775505
H           2.36360080772062    0.83627778015026    1.96959033557528
