    26
        -50.46907260  Gyration_radius:  2.47639802511 Dipole_moment: 2.925
 S          -1.18504488702097   -1.65745970190565   -0.91164823643133
O          -1.73168210142514   -1.74006830273031    0.43833824667918
O          -1.94135995027227   -0.77605260563281   -1.76873526377792
O           0.24238017667070   -1.37278712462195   -0.89433830369780
O          -1.31740989720010   -3.11096894362282   -1.53480639347522
H          -2.25615024078924   -3.16049722341781   -1.67926396554765
O          -0.46301540182157    2.04306579297756    1.33416435333196
H          -0.91745138585038    2.81768014281845    1.66683749936887
O           2.04444419221925   -1.05475994809494    1.10352811784526
H           2.31333686623855   -0.13085498052816    0.88448186858995
H           1.59410686345064   -1.37694657263381    0.30252836784045
O           1.15986780074798    0.78343108053483   -2.08194345918080
H           1.53517333039770    0.54931405759284   -2.93133448335283
H           0.81172750411619   -0.05349624991295   -1.69119545805420
O           2.17113423351305    1.51348472381505    0.39065949798619
H           1.36388442054816    1.86147853041284    0.79510810226186
H           1.95784333777936    1.39317066210287   -0.54932994593852
O          -1.25169906625516    1.68955060712936   -1.10552500970715
H          -1.66346991512056    0.82810618629438   -1.32819044496714
H          -0.81011620380473    1.90116301951479    0.40216388289232
H          -0.41910264702521    1.68229762778182   -1.60298090913155
N          -0.25466947323926   -0.52247619850225    2.18600681727677
H          -0.90187957394419   -1.05092068477286    1.52270173124073
H          -0.38762145682501    0.49460417921009    2.01490493651790
H          -0.44333368222597   -0.76724886294565    3.15110427552897
H           0.75010712713448   -0.78280919085021    1.88676415592962
