    26
        -50.46361288  Gyration_radius:  2.49253923914 Dipole_moment: 6.636
 S           0.93391329650743    1.42873189049404   -1.62075252135381
O           1.67140198518618    0.36351242609711   -2.25750278273614
O          -0.42241010524686    1.07105467649968   -1.24022856792741
O           1.65796539500655    2.00875372978445   -0.48848138384784
O           0.80093267831965    2.57984056584706   -2.70416579923450
H           1.62819766424319    2.48917974014080   -3.16499284188443
O           0.82872694453672   -1.54200314573791    1.49765902607655
H           1.42164759507373   -2.17640019202356    1.90198597998393
O          -1.85033881348458    1.32138198963716    0.99854015374172
H          -2.15448431479546    0.40894813355400    1.11708988400913
H          -1.52192749816798    1.36755220842606    0.07735365321801
O          -1.52492116464823   -1.38339880401118   -1.49621446663950
H          -1.88653634858448   -1.43726554879592   -0.60035458030718
H          -1.22349258218698   -0.46208807353821   -1.59429090222984
O          -1.90356668275131   -1.45221776288179    1.31964130175785
H          -0.93842824336121   -1.55052703402224    1.44006343333433
H          -2.31625126514856   -2.23064387183908    1.69526952724398
O           1.05491575009997   -1.88730438171639   -1.00694905548014
H           0.95505567044470   -1.66264926627983    0.48616975088461
H           0.11757042985288   -1.92657668384419   -1.30406554677255
H           1.41651105543127   -1.11367127367877   -1.48896255553986
N           0.66241796852610    1.16019684565739    1.72053213345498
H          -0.38739937093342    1.30758934960113    1.58565813073848
H           0.84194285636044    0.13651223409839    1.75002832776792
H           1.12524586536911    1.55245208366666    0.82926835643197
H           1.01331122435122    1.62904016486507    2.54770132530973
