    26
        -50.46254330  Gyration_radius:  2.4916143982 Dipole_moment: 7.210
 S          -0.97274293415335   -2.14382416018756    0.30822182555255
O           0.30607084294616   -2.62341993401226    0.84053794499516
O          -1.30442255228164   -0.84933372259851    0.90482617276243
O          -1.03245814951355   -2.14345779124916   -1.12514464304098
O          -2.06154225125545   -3.16614532144155    0.83150961169559
H          -1.88029133660026   -3.18150482391252    1.76538979679767
O           1.56491529297884    0.84905811817919   -1.48490856634520
H           2.16159473512763    0.94073688877014   -2.22847508958069
O          -2.08138983890421    1.30810233049598   -0.52204713558854
H          -1.41512172010294    1.92333458516462   -0.18437836870653
H          -1.97896470428366    0.49790649548108    0.01141118941420
O           0.32242473409620    2.67507147575313    0.13216758046211
H           0.81893401495644    2.09444189595430   -0.47794100688834
H           0.39735205877642    3.56835120631101   -0.20525874348810
O           0.26052465970865    0.84432884174221    2.23068592144878
H          -0.44998192527966    0.25194243704404    1.90264630661308
H           0.17699757384051    1.65960793972909    1.71412803984434
O          -0.66246967903697    0.12053955495496   -2.44020615266819
H          -1.31583623647293    0.64937704558484   -1.92635731299192
H           0.67150379782419    0.53248328375734   -1.89241002053981
H          -0.80841782099986   -0.79361436091001   -2.11867549036262
N           1.89148130168058   -0.60292593480381    0.78689423308523
H           1.86607478301094   -0.14106996491898   -0.14632514521547
H           1.29956011026028   -1.50229722323821    0.76648695255609
H           2.84214237141394   -0.80237948118617    1.07725594315396
H           1.38406287226373    0.03469060953794    1.47996614703823
