    26
        -50.46937909  Gyration_radius:  2.46880936708 Dipole_moment: 3.628
 S          -0.28802897424814   -0.63135163920090   -1.97048029217025
O          -0.88966350783684    0.68277692553488   -2.08888503514171
O           1.16642044265101   -0.57478756415039   -1.96768991812533
O          -0.81656359455573   -1.38479058491195   -0.84687677436851
O          -0.68651696770406   -1.44883695453000   -3.26798879630630
H          -0.12349577368186   -1.07151950857746   -3.93624740069827
O           0.40277818021999    1.61282384190621    1.29806867812963
H           0.60567363942827    2.17923316822824    0.52847148474861
O          -1.07550242797467   -0.61640466341422    2.92320499846541
H          -0.50954063420246    0.13338676572203    3.12492278585010
H          -1.69081873365274   -0.30568351382856    2.24546030519326
O           0.69405377014268    2.59195399014170   -1.17416406116604
H           0.15268155528535    1.87240993673385   -1.56891177120892
H           0.45662163588147    3.39204691444324   -1.64471604612280
O           0.30099203427855   -2.41077933561398    1.41028084351142
H          -0.23185623274203   -1.94773918811647    2.08911709967767
H          -0.21707205418479   -2.34313071637654    0.58998367445779
O          -1.95636524723858    0.52850995000557    0.52176631458421
H          -0.49860506723577    1.27393833052864    1.10781154547421
H          -2.30582454359523    1.10940067446026   -0.15873767846104
H          -1.60605484698767   -0.24228757890936    0.01843107375876
N           1.85327869446862   -0.47836435500376    0.56313133058377
H           1.68583392758386   -0.50952829453285   -0.48003905716688
H           2.84592863095006   -0.46859076119855    0.76856421944219
H           1.36867308932830    0.39051668342414    0.93602693644011
H           1.36297301563409   -1.33320254273601    0.97949556062727
