    26
        -50.46937888  Gyration_radius:  2.46856537732 Dipole_moment: 3.651
 S           0.18418726447017    1.17311629705404   -1.71873581918910
O          -0.93350042865747    1.87297177647783   -1.11547305230152
O           1.45160157233444    1.50786201241169   -1.08622089868793
O          -0.03524975406700   -0.26038369547678   -1.79820874116034
O           0.30066247191488    1.67813606433178   -3.21616901576311
H           0.67699017721682    2.54693942295821   -3.11762403136561
O          -0.47311633395616   -0.06513585248781    2.05575887147874
H          -0.48635705872188    0.91115656546403    2.08192669014745
O          -0.91107696662353   -2.91940632809984    0.85331986385420
H          -1.54428657747570   -2.33054750039481    0.42102615687211
H          -0.76183192500458   -2.54624203208984    1.72608318164519
O          -0.45330932570803    2.52814187866343    1.40062511244333
H          -0.58225560402698    2.33252968775525    0.44581355516089
H          -0.97438420899804    3.31078261204319    1.58473923845454
O           1.24201916553883   -2.41113580359517   -0.73084234609062
H           0.50561493737327   -2.81172273954549   -0.22450248929683
H           0.81603861960732   -1.82275334321740   -1.37754394686717
O          -2.01951290150231   -0.53608055584440   -0.11907502041809
H          -1.32078130287274   -0.48655572779107   -0.81154478204745
H          -1.10665963367629   -0.28847975186605    1.33997890361004
H          -2.53701898550954    0.26151979857569   -0.25571539380039
N           1.81761130129368   -0.32959919901195    0.75136461949129
H           2.67937040079935   -0.28060637256778    1.28299527543925
H           1.73429256137096   -1.24261583555238    0.19999025550667
H           0.96549011828821   -0.24889233914080    1.38072600264373
H           1.76546244657050    0.45700096096777    0.04730780026026
