    26
        -50.47250294  Gyration_radius:  2.48715415049 Dipole_moment: 2.874
 S           0.66962580135899   -1.13730503737861    1.84410884627673
O           0.68779195941527    0.18625384902884    2.45476576571613
O          -0.63114356829878   -1.76964647760464    1.95355201568170
O           1.19042997275406   -1.11744481603017    0.49061966676761
O           1.66727665313259   -2.03424456200736    2.68671574289889
H           1.18392890537017   -2.13048900330687    3.50007552228969
O          -0.04486094569258    0.45749652445085   -2.71597981249298
H          -0.11803822045080    0.34492156576004   -3.66381577644153
O          -2.36241502670203   -0.73398444464651    0.33673172960183
H          -3.23316225304601   -0.90250407699873    0.69969090934848
H          -1.71654374171912   -1.11254746644339    0.98916010594773
O           2.17835200230590    0.80587351545191   -1.12530219671324
H           2.06381532559751   -0.00901179056386   -0.60213147770744
H           1.52578684295121    0.73239514602584   -1.84565715243713
O          -1.53617287264036    1.64416078971568   -0.72731528714587
H          -1.11252558885010    1.34283488751859   -1.55116430665289
H          -1.92477617604102    0.84207927012656   -0.32972837132347
O          -0.50988096738415   -1.77726057102452   -1.46132751233338
H          -1.34444445059885   -1.60991636129953   -0.99936389496816
H          -0.21616226441906   -0.44147382238678   -2.30974779782422
H           0.17284589766470   -1.70643413961359   -0.76417400405286
N           0.68547169516852    2.05675523876202    0.63894573907432
H           1.40214174908568    1.71412767113121   -0.06998584782107
H           0.69067538636330    1.35420281211111    1.43424374927700
H           0.89428339186421    2.98935128796217    0.97585039578651
H          -0.26229950284923    2.01180999317477    0.16123326277877
