    26
        -50.46361279  Gyration_radius:  2.49262883397 Dipole_moment: 6.652
 S          -2.09485736664776   -0.72167562350542   -0.79448671569842
O          -1.34741110315155   -1.12932826263193   -1.98534387998523
O          -2.19355439967593   -1.78102784020174    0.18119659662684
O          -1.58379370855172    0.53168331972014   -0.26536785844400
O          -3.57728107599900   -0.42703496636407   -1.27618387467943
H          -3.95114005863402   -1.30138929731926   -1.25180429235457
O           2.02029793439925   -1.01188284964213    0.44468376764357
H           2.66100816670076   -1.69426650456204    0.64805729837761
O           1.84363668241351    1.60952412483727    1.21943324528309
H           2.53219769498014    1.85038821663575    1.84012588241184
H           1.98694954434585    0.67303221752072    0.97821098662099
O          -0.71085467330670    0.92724417992945    2.26254148229851
H           0.11803873820532    1.36731854863423    2.02699272046086
H          -1.21148626409160    0.86376581572659    1.42917107430930
O           0.32004689386964    2.23382769249445   -1.03518849552953
H          -0.52793121633899    1.82097821388532   -0.77254589366791
H           0.83548483739632    2.30394103584592   -0.21750198683741
O          -0.06902013611317   -1.61811868118715    1.75250559663988
H           1.16788424315590   -1.28542858975085    0.94690387932971
H          -0.31040262402495   -0.76515194315895    2.17969839255393
H          -0.84754442288977   -1.82334296254537    1.19263227382658
N           1.01680826110967   -0.13066833646505   -1.92107395795814
H           0.83910553531219    0.89776405018001   -1.69119627898648
H           0.04032523919297   -0.57962499414080   -2.00700171196954
H           1.54603672611176   -0.24725687561337   -2.77751638190995
H           1.49745656223088   -0.56326966832184   -1.10694184836288
