    26
        -50.46132354  Gyration_radius:  2.48133727437 Dipole_moment: 7.403
 S           0.33902516621234   -2.20928295509445    0.16855782860288
O          -0.77049414394017   -1.32103807502946    0.48713563542880
O           0.50144212602448   -2.48229393211525   -1.23504654289996
O           1.56938522577285   -1.73749669974087    0.80717981276116
O          -0.00655748764156   -3.60133729193372    0.84683511670530
H           0.31959685318871   -4.20113501977552    0.18470381346823
O           1.07559608947962    1.83352965916363   -1.12278518167590
H           1.62464979081545    2.32350192416371   -1.73564588129105
O          -2.30326241258316    0.03149274711489   -1.37659384638094
H          -1.96038747380908   -0.57552255969771   -0.70283251299803
H          -2.25192206387979    0.91895742698168   -0.97510669178077
O          -1.50620208329441    2.29826887507092   -0.01781666663869
H          -0.64239692681374    2.31776280074147   -0.45249908603259
H          -1.37288491264965    1.84988094236213    0.82886623924103
O          -0.85262202713619    0.63625162127302    2.18330653091560
H          -0.88122286068173   -0.14126887920088    1.56496016694529
H          -1.41956445000612    0.41241852741626    2.92219427206347
O           0.12744637061198   -0.12362645600456   -2.44445401410156
H          -0.84249991204963   -0.04494439968129   -2.27684234575337
H           0.71207910603876    1.04112524677784   -1.65734440682476
H           0.35487855242499   -1.01252146486427   -2.11100533811356
N           1.65899168225601    0.78153305231671    1.23681358889794
H           0.80926634554779    0.93961955858016    1.80790211445766
H           1.68919790324874   -0.28786271836066    1.05621512778894
H           1.53085051967475    1.25576587656924    0.30302666492724
H           2.49761104318861    1.09822220296694    1.71027558228750
