    26
        -50.46162481  Gyration_radius:  2.55247844168 Dipole_moment: 4.676
 S           0.90861037440863   -1.93833303447836   -0.71866868709147
O          -0.06441605645365   -2.04421258098755    0.37193385183988
O           0.29009947682008   -1.47311060332880   -1.94795792306135
O           2.06744473761758   -1.18125493121211   -0.30775162210424
O           1.41266776927799   -3.41461633989937   -1.01315057763275
H           0.69142257038788   -3.83056898809377   -1.47744121786287
O           0.77487311621997    2.03265265679462   -0.24700943381618
H           1.27495708452926    2.84515242824968   -0.15627925713938
O          -2.10203754924957   -0.75825900786879   -0.96350109617667
H          -1.96726454573530   -1.33005198691322   -0.19977993563190
H          -1.32095545175860   -0.93366592805310   -1.51873244676264
O          -2.01498078972144    1.70548713644715    0.10841411357101
H          -1.11995287545083    1.95858063199506   -0.15801054443257
H          -2.18983782086079    0.85517803812024   -0.35088370298109
O          -1.74664680516052    1.14775464980630    2.64607026294160
H          -2.00091352677110    1.36449023938720    1.70461753460701
H          -1.89395726628563    1.94681405196279    3.15301901584429
O           1.88570240612361    0.67342929417036   -2.15430881730752
H           1.16217035039806    1.56267944940414   -1.04476279540685
H           2.28226068121603    0.04538741915926   -1.51839834607911
H           1.19301141021824    0.13278413141722   -2.56142540655901
N           0.50605521617125    0.13155532227169    1.69007340852455
H          -0.32612762361087    0.47554453077915    2.24036735224824
H           0.25463419995114   -0.78470247491148    1.20552902964437
H           0.71889663554597    0.83791391308193    0.94922879186157
H           1.32428425219711   -0.02662802730926    2.26880845896107
