    26
        -50.46361283  Gyration_radius:  2.49256486338 Dipole_moment: 6.643
 S          -0.62915170937563    0.82509945853804   -2.11245165551659
O          -1.02783293739239   -0.55750982208923   -2.38132998367333
O          -1.71074198834705    1.61334158015019   -1.57128445651245
O           0.59253883049768    0.86942051144430   -1.32654563741754
O          -0.27465120862320    1.46985784514874   -3.51781361810796
H          -1.13653915740637    1.74420574207996   -3.81253493240055
O          -1.09100707790281   -1.02969198335833    1.74808552385675
H          -1.80070970894545   -1.31066675536346    2.32674695154817
O           1.51386742397563   -0.34479126529567    2.24971352101773
H           0.58002962510048   -0.61749076705203    2.15390004434050
H           1.71441272919182   -0.34701601414276    3.18628570579828
O           2.24854388557318   -0.98795782434381   -0.36648786188262
H           2.28047486428105   -0.73049331618863    0.56721797152037
H           1.85749148251279   -0.22142698318622   -0.83349285951246
O           0.89038520233958    2.14821488333972    1.03614896095685
H           0.86560292122648    1.86990005370737    0.10278592241149
H           1.30866402461859    1.41426176418324    1.50798410853245
O          -1.66009576114486    1.34671596639243    1.06224568689526
H          -1.82479831303453    1.45687501440187    0.10184133571192
H          -1.34858808365418   -0.08276505768391    1.44633491583767
H          -0.81058373859175    1.82216175444301    1.20650984292012
N          -0.11403143280134   -2.10446245891958   -0.54731864202696
H           0.91343126126193   -1.81829331238322   -0.48026366532480
H          -0.52684255855119   -1.50950893675586   -1.34604091740340
H          -0.22586433372101   -3.09372664464846   -0.73710538106561
H          -0.58400423108758   -1.82425345241750    0.33686915949673
