    26
        -50.46253567  Gyration_radius:  2.45894953027 Dipole_moment: 4.969
 S          -0.18980679828428   -1.83296654347860   -0.93677228197383
O          -0.20447789087611   -1.46134361976710   -2.32706860585375
O           1.15437081745568   -1.96016864827193   -0.37812437772887
O          -1.02401957904916   -1.00614289403598   -0.07925056472951
O          -0.83548448836555   -3.28647897578636   -0.86229522522627
H          -0.54290816443069   -3.67433910212502   -1.68053928792996
O           1.53733704848614    1.77738034751945    0.49012721591757
H           2.20686481357336    2.45067201531598    0.36419494672313
O          -1.28032284931720    1.56848149881895    0.67628985453283
H          -0.36055668908957    1.86268359600689    0.72974221653453
H          -1.23999287583973    0.65227153243642    0.34252642582200
O          -1.54799247527848    2.05448437708392   -2.00629651657506
H          -2.04716670425984    1.29516456566657   -2.31389639642181
H          -1.64154697502482    2.06827037375206   -1.03359413371737
O          -1.13332425866926   -0.64958929875520    2.55435340816272
H          -1.31362184844193   -1.03127204004141    1.67235868719914
H          -1.49194705369986    0.24531931078718    2.50063142204938
O           0.90794962337813    0.92201505324574   -1.86023794209231
H           1.34186451045421    1.41394439553578   -0.42795408258508
H           0.64537798061959    0.00704224261804   -2.06571508364762
H           0.11313850287782    1.45923510846190   -2.06905526057093
N           1.40836586729605   -0.57299150846939    1.77119791040252
H           1.34108829441532   -1.20688565189872    0.90017238909658
H           1.58662361698506    0.38926279012601    1.40734487532545
H           0.46178457957052   -0.59839177504231    2.24246429439367
H           2.14840298551171   -0.88565713970562    2.38939613289319
