    26
        -50.45920806  Gyration_radius:  2.51539938507 Dipole_moment: 7.233
 S           0.78715092632898    1.93321857729346   -0.05258220340328
O           0.84916909613304    0.95931310019884   -1.13706358312020
O          -0.29385366592540    2.86898387680897   -0.13260147174069
O           0.92235067869373    1.26155379567646    1.24289563357075
O           2.13128288369567    2.78924528300970   -0.20152480685944
H           1.82677320398087    3.69125264186565   -0.18495848958058
O          -1.24548932474646   -2.12316817884506   -0.23688554018421
H          -2.07505792155337   -2.59914610242181   -0.17514883329217
O           1.01757258100892   -2.97219356089953    0.80838518894957
H           0.77907581233739   -3.02483636548331    1.73648902580013
H           0.17434472832893   -2.78371953937137    0.32467868250000
O          -1.46277609678459   -0.07040141228169   -2.18347063268143
H          -0.62111984079735    0.37699818738646   -2.00431542596759
H          -1.39983975933960   -0.91563920482982   -1.71525876219841
O          -2.64583650420369    1.46220111714108   -0.26353053067624
H          -1.97095207655951    2.15810892867841   -0.22660796376044
H          -2.44667632368813    0.96306382258365   -1.08116202219612
O          -1.40602041394729   -0.14351429194929    1.41436415755187
H          -1.31888213559188   -1.35597498438585    0.41280344400753
H          -0.58893505667096    0.37348363682434    1.50189049860189
H          -2.02491160449927    0.45267848441414    0.91839140782461
N           2.24090684477758   -0.69114588436378    0.24924127237492
H           1.80371229877668   -0.26572648911749   -0.60971904618393
H           3.25334855013494   -0.71040453028822    0.19240948792065
H           1.88303389857221    0.01659772319039    0.95128809059386
H           1.83162921149295   -1.65082860092451    0.45199243211412
