    26
        -50.46361285  Gyration_radius:  2.49268031138 Dipole_moment: 6.643
 S           0.54243420725348   -2.28226560640518    0.19561121425696
O           0.94427078962076   -2.39099524595633   -1.18665769205347
O           1.62757533132412   -1.80653636366941    1.05527498238570
O          -0.66593138925773   -1.50299643822037    0.40667280615921
O           0.20697243264232   -3.75726175054810    0.67369690330857
H           0.85032109431123   -4.25681019348352    0.18225116450950
O           1.08060646410040    1.88074726524576   -0.77655776290026
H           1.70033899301768    2.42907265033159   -1.25901853454241
O          -2.03435551667669   -0.18663069367426   -1.51722274700028
H          -2.11381146408927    0.65316075118505   -1.04319579284164
H          -1.68550292793137   -0.81735044563573   -0.86167071383488
O          -1.55568291384017    2.24529740475107   -0.12682259063405
H          -1.91263802925323    3.05145677936072   -0.50106633423857
H          -0.61385603357108    2.19932361182558   -0.38464349570610
O          -1.32322465313226    0.50022316589761    2.04087874070578
H          -1.66746124086509    1.14353104333866    1.40310022329383
H          -1.28425415855397   -0.34976261618362    1.55669417259497
O           0.50865669326975   -0.04324748661644   -2.33047156723891
H           0.78489028235205   -0.92380150575028   -1.99896096932178
H          -0.47358185385363   -0.07572024719298   -2.27985939429199
H           0.88470886431941    1.08668431649936   -1.39681431037639
N           1.26105859337465    0.66472647084033    1.64590235627112
H           1.47175558169995   -0.37142185474512    1.43453471013020
H           1.33770685564094    1.19500016036318    0.75484972110651
H           0.23954968721012    0.69061807536733    1.95872004274097
H           1.88945432088811    1.02495874307472    2.35477484751883
