    26
        -50.45476258  Gyration_radius:  2.60365332062 Dipole_moment: 5.765
 S          -2.46007072171989    0.64700173252454    0.66318112297872
O          -2.72484563340469    0.62231149728371   -0.76037091006659
O          -1.77063943274379   -0.51566449880452    1.16914078490898
O          -1.75756969116354    1.87536600308681    1.06636588178374
O          -3.88199095203649    0.70127624516530    1.36987460293825
H          -4.37466762569383    1.26122728326415    0.77782613323080
O           1.22127665377599    1.28662028990488   -1.48543806948320
H           1.05923437838801    2.07775252837551   -2.00005366894461
O           1.99469843404993   -1.20212353132816    1.38590384643415
H           2.56160513573378   -1.77891504043353    1.89785046330443
H           2.37350279142812   -1.15745381874703    0.47358402444275
O          -0.21254176677979   -2.24630576561032   -0.08611292653896
H           0.54839865148612   -2.10437982007451    0.49323534528968
H          -0.94177820439662   -1.79701132405501    0.38453235042633
O           2.63409555086055   -1.07393926057428   -1.18434661362623
H           2.34833079712018   -0.18051077352632   -1.43303342661981
H           1.98634779996113   -1.67156741325861   -1.57060681827421
O          -0.61587143522837   -0.39199414933985   -1.98639661357790
H          -0.46229419544623   -1.17826209462680   -1.41761882752387
H          -1.45950391925861   -0.01329556879916   -1.65366735312308
H           0.46999846927994    0.63657629578723   -1.73389447156164
N           0.70798500339152    1.23950203813698    1.14274771581238
H          -0.35680605625578    1.48408197731946    1.19029463720666
H           1.23872145081627    1.87737594749650    1.72728589699373
H           0.88399146347366    0.26829473212960    1.43695785945314
H           0.99039307430793    1.33403648888711    0.13275906406094
