    26
        -50.45476268  Gyration_radius:  2.60402231127 Dipole_moment: 5.786
 S           0.54770336725872   -2.54291446149525   -0.38476999783258
O          -0.66965765132815   -2.06837136629020    0.22803410569962
O           0.70871873835706   -2.17456562049338   -1.77610931012477
O           1.71452939239031   -2.15140828712164    0.42153297062818
O           0.50643500205313   -4.13080831767340   -0.35634549019869
H           1.14258434424489   -4.35626983464350   -1.02800203209666
O           1.46713234471798    1.66171805436251   -0.66644193084385
H           2.31546676549275    1.69299603274375   -1.10951933526025
O          -2.21768337289546   -0.02439593888067   -0.42228475528418
H          -1.83532807727020   -0.90963330341811   -0.26293526726875
H          -2.14897695777965    0.40713425323342    0.44009102009234
O          -0.90916023961276    2.94175838194149   -0.05487042575739
H          -1.45646464537781    2.55241549229330   -0.74393853028721
H           0.00730942655496    2.73833084825343   -0.30080075729247
O          -1.35894196400950    1.28260127163505    1.96367841667609
H          -1.19989829126672    2.00913789515404    1.31196330420443
H          -1.99021185460772    1.61165393288296    2.60348167123918
O          -0.13875473354474    0.30737914279187   -2.09140547563257
H           0.19276045105176   -0.61768709003582   -2.10934485623000
H          -0.99008179951870    0.25047631883139   -1.60463640016236
H           0.85213844412877    1.12443876220223   -1.28431261197058
N           1.08890394747041    0.08586303821535    1.46651331485467
H           1.31884713227472   -0.91218939897367    1.08294003363791
H           1.31111419915200    0.76233101432069    0.69096693971576
H           0.08955879182187    0.17848974667769    1.69845588564383
H           1.65195722016587    0.28151941352770    2.28805953393851
