    26
        -50.47149997  Gyration_radius:  2.42648702731 Dipole_moment: 3.451
 S          -1.59033821838866   -0.10917142835784    0.99957810640189
O          -1.20749641531167    0.01404847277877    2.39763987758884
O          -1.31069153976970    1.11371022677306    0.26182410084841
O          -1.02821782918591   -1.28373681606851    0.36348348242468
O          -3.15655006288466   -0.31009637458029    0.97365029760366
H          -3.46670432359082    0.44190382906297    1.46678157530020
O           1.85806140619751    0.48790965386764   -1.60574864580814
H           2.41485655577942    0.61927330723891   -2.37365998345484
O           1.15548652965744    2.19648609800383    0.42977052066614
H           0.19617778553118    2.03020574541709    0.34756631059666
H           1.54600855977013    1.75484633756226   -0.34737109957191
O          -1.71037877475203   -1.86014823470582   -2.14685596590849
H          -1.58123295515273   -1.71622065016510   -1.18817321404236
H          -1.31943048189480   -2.71259245432837   -2.34472534877776
O           1.64426385801454   -1.47765403142512    0.28699871727098
H           1.84502150465973   -0.88354592449485   -0.46073220602029
H           0.67511944273301   -1.60019201997056    0.26105984503702
O          -0.63390777218987    0.63808122843905   -2.30037985904085
H          -1.04078406046653   -0.22935670291225   -2.47839693993457
H          -0.99264401299596    0.90732817241971   -1.43374784637034
H           0.91085379108977    0.52470482315185   -1.93797914282988
N           1.38349232631963    0.29070589795566    2.20077437168456
H           1.96655855288912    0.33538805132260    3.02866703418512
H           0.36231680668612    0.15919622520668    2.44171343094717
H           1.43024328393180    1.17943138225951    1.60956074180304
H           1.64991605342012   -0.51050482454870    1.54870184938896
