    26
        -50.46603990  Gyration_radius:  2.42519023978 Dipole_moment: 5.941
 S          -0.37961269907434   -1.95858302666973   -0.47570804937620
O          -1.31409351863353   -1.19307329304552    0.32931032092157
O          -0.62737588926765   -1.92068247669932   -1.89055840191171
O           0.99232768920164   -1.58240464911625   -0.11024893401816
O          -0.54468037689726   -3.47447478539227   -0.04300474681409
H          -0.54734935624623   -3.89100467699473   -0.89748782609595
O           1.28897323255445    2.14638083473770    0.25632999111711
H           1.73432758600597    2.98344817636543    0.12506579477462
O          -0.67213371785927    0.65790887523212   -2.71882375388984
H          -0.79255777941642   -0.29920932746126   -2.58768878699412
H          -1.19099614784975    1.09536254571861   -2.02629293272044
O          -1.44836606883280    1.47454689624687   -0.11492703364420
H          -1.42466824918926    0.50357942794687   -0.03555214068949
H          -0.54223572474094    1.79609387037659    0.00211226220437
O          -1.59342449677880    0.29557768296584    2.51928192852577
H          -1.88131681184245    1.06759892449937    2.01205491901610
H          -1.79271766787211   -0.45618616174800    1.93392840771684
O           1.76061340074181    0.52006265757200   -1.66344252108654
H           1.53706240376530    1.56253960478717   -0.53560200570115
H           1.63106207337710   -0.34521482121880   -1.23869701559470
H           0.96757016990644    0.64192341005774   -2.23931740726614
N           0.98226198709445    0.07417893271350    1.90495627623247
H           0.99559314205446   -0.67451437748454    1.14289384154024
H           1.63632363585945   -0.15729291286050    2.64463567811610
H           1.23768679870564    0.97149887955618    1.43458890976621
H          -0.01227357477483    0.16193978991885    2.27219323587371
