    26
        -50.46253524  Gyration_radius:  2.46074360469 Dipole_moment: 5.008
 S           1.03504607840270   -1.64051205174983    0.71997823283736
O           0.18312230454078   -2.71853759828455    0.29149555295752
O           1.27793141691360   -0.62285602952769   -0.28969003501269
O           0.61324986568520   -1.02754555929975    1.97801682905662
O           2.46069946289465   -2.28809567434108    1.00442835175158
H           2.22113826691470   -3.13018961779990    1.37731853665199
O          -1.92598169287903    1.38392787266494    0.34219731087336
H          -2.83432145904806    1.64923705273544    0.49022762277230
O           2.16430170404483    1.88444443894436   -0.19145362648931
H           1.69660730504245    2.16475879607951   -0.98852874120352
H           2.18221417386462    0.90925633805459   -0.25723161524245
O          -0.11751420585743    1.10503681664233   -1.81631117632343
H          -0.82010335355680    1.39129507976819   -1.21625110583196
H           0.38065539508839    0.42392466584921   -1.32591873405372
O          -1.44502892325095   -1.12132206085726   -2.70304964849388
H          -0.99135368614902   -0.25778759176457   -2.64177566555343
H          -0.75413871456442   -1.78642094044668   -2.73239939198590
O          -1.96080294171480   -1.16391923829325   -0.04483667618628
H          -1.94745905837672    0.38131222256171    0.24876296150267
H          -1.98681927856080   -1.22141118358170   -1.02450149193650
H          -1.24034911475605   -1.76591729111469    0.21536168252523
N           0.36164181228363    1.51915649033950    1.73162168587957
H           0.42660627245773    2.03439770563362    2.60223159063598
H           1.10518599862086    1.81583248768198    1.04015982652769
H           0.49458335365007    0.46146603087448    1.89990317841717
H          -0.57911098176991    1.62046885919292    1.29024454590083
