    26
        -50.46361276  Gyration_radius:  2.49261640463 Dipole_moment: 6.643
 S          -0.78419963966706   -2.09829208547813    0.72228992205488
O          -0.96951874204772   -2.58221492518504   -0.62503343396955
O           0.58570046201356   -2.29309574153855    1.20035633311972
O          -1.21514928651079   -0.72572722993902    0.92817868676072
O          -1.71138808774804   -2.99611150430636    1.64452499511670
H          -1.64088803342953   -3.83737950515928    1.20611018564994
O           1.62472167780510    0.72672794111808   -1.46136476851734
H           2.25185841295824    0.72407875391677   -2.18536801128220
O          -2.15219166153082    0.92866757308540   -0.99322653968486
H          -2.02448493720091    0.29390743931234   -0.26523126087159
H          -1.59648974779841    1.68792495613806   -0.76736750211571
O           0.00748228009221    2.69579467737371   -0.45563735180348
H           0.62387942602185    2.05538445300400   -0.86259431953174
H           0.06058129767279    3.50377072636791   -0.96723372749039
O          -0.09007516547302    1.42710600102722    2.03014961646986
H          -0.68534878222598    0.68319318457139    1.80483501624116
H          -0.20151177783564    2.07083327800893    1.31439835845858
O          -0.37710624456749   -0.60186122851995   -2.27948576162669
H          -0.54485590327293   -1.42402645386741   -1.77200216839688
H          -1.13434322932451   -0.02213052071995   -2.03640676418766
H           0.83573447050563    0.15623244926535   -1.78706521409353
N           1.86221744664921   -0.06700144323163    1.12575023382845
H           1.38304511826311   -1.03139335875680    1.17985981402708
H           1.92985346877103    0.20173374694834    0.12359409668667
H           1.19098442632642    0.61248059554208    1.60508638919393
H           2.77149276155309   -0.08860176897760    1.57288315596396
