    26
        -50.46862853  Gyration_radius:  2.47495479608 Dipole_moment: 4.018
 S          -0.00004487459686   -2.08962721972153    0.82362401612448
O          -1.06987038270622   -2.63929704797684    0.01699384064226
O           1.07675476046022   -1.53220088830851   -0.01252063611237
O          -0.41155315937772   -1.15043116100180    1.83086955764744
O           0.64872948515153   -3.33191882528316    1.57084104789471
H           0.49314374281981   -4.02662743315309    0.93975019069838
O           0.91059524170368    1.98810147681005   -1.63233163491183
H           1.23924884434356    2.46296577317094   -2.39584085801791
O          -2.22474594180971   -0.49499719841888   -0.87746340332361
H          -3.17300478984182   -0.63569771233721   -0.89273001591709
H          -1.83239439450185   -1.31696379621927   -0.49274009807349
O          -1.40599435409277    1.99203153185616    0.03774341586946
H          -0.69371877815761    2.19152462607480   -0.58460539826817
H          -1.75805344690025    1.12664821376450   -0.23273482392058
O          -0.12156150940457    1.45468342708273    2.30990926422641
H          -0.73308962181324    1.79744339196191    1.61686140137505
H          -0.36525901753551    0.51478433456381    2.40415307334003
O           0.15484101055494   -0.41357192514413   -2.27087561874113
H          -0.79555434909829   -0.43204794076037   -2.08105519196975
H           0.62677396513874    1.08344582419794   -1.96024389475508
H           0.55536264753770   -0.94701475026241   -1.55583750898601
N           1.80812642844908    0.88993248085016    0.68908443156930
H           1.08417254386229    1.20008320142555    1.44550670623092
H           1.64126963950080    1.44666112811831   -0.17088040038799
H           2.76327093003372    0.98241253830374    1.01437024325900
H           1.58255538027973   -0.12032205970046    0.46015229447076
