    26
        -50.47250225  Gyration_radius:  2.48747430245 Dipole_moment: 2.899
 S          -2.06147423950559   -0.74587050950685   -0.58188682613568
O          -2.37832353278802   -0.48844929262399    0.81784110645590
O          -2.27062704778924    0.42551090154800   -1.41104069332806
O          -0.74781009492741   -1.33924240978107   -0.74130563526888
O          -3.09924959301332   -1.83331110601800   -1.08183452107358
H          -3.90955054900358   -1.33594585552525   -1.05957172268275
O           2.75205267323411   -0.04747688052971   -0.12714952933901
H           3.65560680624211   -0.05565080137897   -0.44342730574593
O           1.09722209515889    1.76199701728629    1.12818395242164
H           0.54921730740991    2.02215955244443    0.36359451091014
H           1.82775739643491    1.23758241539497    0.75356471760557
O          -0.42250035843016    2.20563244084297   -1.09898345939779
H          -1.15802644506995    1.54573677048483   -1.19854231249416
H          -0.79108463839071    3.05195367339297   -1.35624838819605
O           1.21757984629611   -2.06071699641671    0.96267367050770
H           0.53559054673013   -2.06387675941634    0.26568680296022
H           1.92195132242549   -1.48127486636040    0.61873031161852
O           1.06191973198338    0.07637103787397   -2.10519189895634
H           0.37853771739939   -0.53375114840853   -1.76183598802970
H           0.66778554072094    0.95621979830782   -2.01310621680698
H           2.16779060307191   -0.01934134135828   -0.93977485329649
N          -0.20294840632460   -0.25240080973928    2.23487544957995
H           0.39927856924056   -1.06396793003965    1.89976980122074
H          -1.13060877768149   -0.33725770268647    1.72659320444270
H          -0.33612409005548   -0.26272451964219    3.23937530270230
H           0.27603762663921    0.63809530185416    1.90901053032923
