    26
        -50.46926248  Gyration_radius:  2.54924173895 Dipole_moment: 4.554
 S          -0.53975837791806   -0.09894893583230   -0.12146704963330
O          -0.60943979932771   -0.81970656061538   -1.38634030645243
O           0.32564040263358    1.09053409107767   -0.26430063632510
O          -1.82474566215042    0.24203497109057    0.43465512369451
O           0.20339612393639   -1.06217917786773    0.84571560318599
O          -2.66655750058507   -0.63637451380865    2.79924086886003
H          -2.48156579947773   -0.29112030451347    1.90069098403399
H          -3.04737584392922   -1.50689994865302    2.67712632413667
O           1.67346613157146   -2.14168360237539   -1.23158114080493
H           1.72927253724339   -2.31474699556277   -0.28721703662389
H           0.74028101334658   -1.86814035790564   -1.36989096977055
O          -0.56993290171049    2.30060724034486    1.94127118335494
H          -0.18262415095634    2.00395669589253    1.09709460258390
H          -1.51889565095016    2.19557182831089    1.82610385833278
O           0.11889535547382    0.34434938140860   -3.66071441244709
H           1.58875868994914    0.44669878622261   -2.81337884306751
H          -0.28197311764096   -0.16655451615667   -2.92274766826649
H          -0.47690221354453    1.07556731670373   -3.83059651505318
O          -0.06288329497601   -0.03347656932828    3.13026802408111
H          -0.12816332475030    0.92000276898621    2.89207194999176
H          -0.98509289306676   -0.30650042556868    3.30977138076530
H           0.14482430161987   -0.67028576738851    1.79699327203790
N           2.13467195071928    0.36298076405315   -1.92521733651082
H           2.21067956019733   -0.66636291749926   -1.69952140068472
H           1.47450217045361    0.76673911956215   -1.17387418178394
H           3.03152230383593    0.83393763942958   -1.96415566763097
