    26
        -50.46254374  Gyration_radius:  2.49158660213 Dipole_moment: 7.196
 S          -1.84161707053320   -1.31215545914870    0.72468488087087
O          -1.37559712649901   -0.98532834256562   -0.62363247747900
O          -0.90147389508427   -2.23656727951580    1.36511557371238
O          -2.14038021150465   -0.15721118969750    1.52149265979432
O          -3.18542264016495   -2.12790220614784    0.54295137579383
H          -2.88078326137948   -2.90459221302484    0.08556346433862
O           1.49573494048394    1.40016507504517    1.08808182990559
H           1.91934598559909    1.94147478110464    1.75503601077865
O           1.02919122617539   -1.33980995409428   -1.70356360588502
H           1.27471257225567   -0.44295436686097   -1.97514832752078
H           0.07342510503181   -1.29514683773015   -1.48447952727920
O           1.63007243661106    1.38020117211826   -1.64601979477907
H           2.07772963889150    2.15274415128780   -1.99278986949038
H           1.65746739678893    1.44522057067399   -0.67088976922179
O          -1.20627803123865    1.53498301297101   -1.57986560949631
H          -0.27500954073567    1.50311253101086   -1.84100113986558
H          -1.43101478081971    0.62413394022156   -1.31287029645225
O          -0.92512063762250    2.13293241141262    1.00204896393110
H           0.50840258665816    1.69945400358320    1.08343235493494
H          -1.12739901930796    2.14232335532525    0.03787139218181
H          -1.44899121221723    1.37479565565291    1.33543078726367
N           1.44313160791139   -1.30727267312880    0.87853538551711
H           1.45027716010639   -1.40387313359388   -0.18675605555306
H           2.20122460103412   -1.82120840213632    1.31330755031133
H           1.49015230517992   -0.29198690324861    1.10587841604086
H           0.48821989438557   -1.70553168948486    1.17758581764288
