    26
        -50.45476209  Gyration_radius:  2.60455175669 Dipole_moment: 5.775
 S           1.54145766470074   -2.12906253453503    0.11679063229675
O           1.44607123362538   -2.13244054644393   -1.32841485734139
O           2.47894485166372   -1.10287823390723    0.59924828940358
O           0.27775650200927   -2.01925417716297    0.80511437453204
O           2.17915905896519   -3.52930903724895    0.51275538970872
H           2.79080591267562   -3.67572002408845   -0.20214924967057
O           0.58726575924109    1.84690705899841   -1.26974438985531
H           1.31363441595754    2.08228469326346   -1.84761606117349
O          -2.02088791452590   -1.00096001257159   -0.01660880301127
H          -2.08629873354616   -0.35609253099255    0.70067501674376
H          -1.29345618126254   -1.58661174777074    0.27180310931801
O          -2.06552899293954    2.21027817831765   -0.56755388193692
H          -1.16624967220925    2.32195630404794   -0.91476719989079
H          -2.43715158816450    1.46068787799648   -1.04296106802117
O          -1.64741939033818    1.14634542439208    1.82417707659037
H          -1.85067820661439    1.66284977346716    1.00563503657143
H          -2.31732040143842    1.36839147697369    2.47074894097154
O          -0.38166243999603   -0.36657418950765   -2.04854342252308
H          -1.09803713477251   -0.61198291020344   -1.42288125533041
H           0.22028698365065    0.96276391692079   -1.63289385316431
H           0.30591020531070   -1.05552436444862   -1.91244233212544
N           1.04016752226096    0.91128843968415    1.19925496789255
H           1.64189198878561    0.01571418478158    1.01890275840333
H           0.90895337594996    1.37574489414015    0.26362842970813
H           0.11078886848499    0.67172775088949    1.57338288485120
H           1.52159632241892    1.52947033493299    1.84445947705196
