    26
        -50.47229089  Gyration_radius:  2.48109061756 Dipole_moment: 1.996
 S           1.16624412625750   -1.94475768151580   -0.22967699988370
O           2.44288434874458   -1.26172090246994   -0.31443275712924
O           0.35994107074400   -1.45422213297254    0.88358467978239
O           0.41773781532902   -1.94923691179130   -1.47018430566513
O           1.51164827301527   -3.45807775337198    0.09043391924064
H           2.28811223041428   -3.36061540846396    0.63122782541466
O          -2.19842452047500   -0.64949587962999    1.11719665482032
H          -1.33015245276759   -1.08492354912263    1.21914980824906
O          -0.66774061788715    1.95147694579143   -1.23538212358593
H           0.28575491008740    1.75209741758026   -1.17507138865101
H          -0.95318573261767    2.12749519124840   -0.32084712960185
O          -1.27922418726298    1.93172697744639    1.45008039444656
H          -0.36296596035920    1.58823359795926    1.65864720690615
H          -1.48409411271906    2.58309333539540    2.12111556988480
O           1.94586793826087    1.21886936079476   -0.86858647180818
H           2.14462860034242    0.26073186855718   -0.70927519501712
H           2.63171964021708    1.53467047102113   -1.45896811071475
O           1.10407971065751    0.93422478933665    1.78869921059596
H           0.90582459413624   -0.00143993742868    1.57483782743064
H           1.60875221212302    1.25486707686787    1.02858092146158
H          -2.04164224852783    0.27910109540262    1.36715213333042
N          -1.72409678666031   -0.45431534946285   -1.45556415425274
H          -2.41385779467298   -0.65326734698331   -2.17046697595230
H          -1.35910615236976    0.54207582423914   -1.51611437887234
H          -2.10751624283532   -0.58315344253724   -0.47010738422155
H          -0.89118866117373   -1.10343765590655   -1.53602875620852
