    26
        -50.47229016  Gyration_radius:  2.4808418951 Dipole_moment: 2.010
 S           2.01019121790456    1.04415000873990    0.24576339964446
O           1.51243416653422   -0.19510386518739    0.83413374325666
O           2.36284266107774    0.87649074729461   -1.15105020253930
O           1.11167771809105    2.15281759302468    0.49670267332177
O           3.36678084293027    1.38926995950179    0.98927187744045
H           3.99278264964402    0.89473397064836    0.47116701258191
O          -0.63613801298506   -0.81386973387766    2.33284574774523
H           0.26256230980382   -0.70134876556741    1.96737445893528
O          -2.16829141569624    0.29830673126321   -0.99302950464047
H          -2.17263219924450   -0.61502443933735   -0.65372095204104
H          -1.38574406388985    0.35479113107935   -1.57353994871497
O           0.16884040115236    0.34623787452227   -2.42135127256721
H           1.00278293557148    0.60056447925727   -1.94950342785783
H           0.20981492475616    0.77611113426852   -3.27704580905239
O          -1.67528538235832   -2.15500475890603    0.15338351900105
H          -2.03830371119911   -3.03639146220542    0.06536166978993
H          -0.77105647276632   -2.17696406269205   -0.27440164186024
O           0.67907751349243   -1.98334914538016   -0.95014293175488
H           1.11389021212403   -1.40895147204462   -0.28565393350078
H          -1.08117539332044   -1.42236051150140    1.71583821648854
H           0.54383942215443   -1.40842291518020   -1.71589929676628
N          -1.30408554149967    1.46112367176920    1.20949381582365
H          -0.34304126152969    1.82620269701903    0.95522755783768
H          -1.14447893886997    0.60606841160908    1.82425570341002
H          -1.85663420661320    2.17422536928660    1.67057311131913
H          -1.76065036528539    1.11569736257525    0.31394643470182
