    26
        -50.46926240  Gyration_radius:  2.54939346944 Dipole_moment: 4.550
 S           0.49079890642585   -0.13430474965331   -0.23805185984672
O           1.56918084616584    0.43448129382871    0.56057373802134
O          -0.29536131689553    1.09284783109438   -0.77792083233135
O           0.93883164328003   -0.94169907811055   -1.34447734405623
O          -0.44687653058401   -0.87422729386268    0.63232015230647
O           0.38327307489707   -0.37250013607540   -3.88194711067978
H           1.03130011533344    0.25908863051626   -4.19650644751778
H           0.68587452332996   -0.65407731463773   -2.99307234229359
O           0.31806844212759    2.57559892119333    1.47327280986075
H           0.96825272318185    1.94014983116395    1.10138737077607
H          -0.24279578229573    2.80134395208140    0.72535776283236
O          -1.59230217617320   -2.23686148408582   -1.35815823102557
H          -0.81393630165310   -2.53285459504790   -1.83919671508684
H          -1.24312907570803   -1.84897597792717   -0.53457748522718
O           2.05090398973481   -0.44041811507684    3.02240243302637
H           0.45394731519018    0.10364647201658    3.22858873705380
H           2.32326162744964   -1.35778129682134    2.96947239436604
H           2.05733104426410   -0.10171046684800    2.09959300518492
O          -1.87095291475791    0.15528534099272   -2.50616990156144
H          -2.00986072063332   -0.75236671839071   -2.14979480424151
H          -0.97571225589938    0.75694985809041   -1.47525715787629
H          -1.23444529304674    0.03728620786487   -3.23968898497166
N          -0.45005847893899    0.44451839924180    2.82805693282283
H          -0.28558012882584    1.42546851066387    2.47182630226844
H          -1.22382401102954    0.37714400252424    3.47952276929894
H          -0.58618926492468   -0.15603201473363    1.94244477890582
