    26
        -50.47168699  Gyration_radius:  2.49102792361 Dipole_moment: 3.008
 S           0.12349048711695    1.18402071009279    1.97104507363752
O           0.11550986204371   -0.26038244161230    1.75143023836060
O           1.34881827888386    1.77399183820110    1.44274496534753
O          -1.07896562838077    1.82705687966305    1.50589944174787
O           0.17984247184073    1.39930337531250    3.53767608191002
H           1.05071089791356    1.07454369556853    3.73889458042036
O           1.68124744862816   -1.84101839559227    0.23763574225745
H           1.15067869574985   -1.42854091552126    0.94687842988111
O          -2.12298354815570    1.31448714318985   -0.80477002951407
H          -1.72128717502725    1.55672602252454    0.06858908557837
H          -2.74875683472218    2.01063104192836   -1.00928314224879
O          -0.42861165240665   -2.23081092683374   -1.48420367723563
H          -0.81642990107507   -3.02323676951817   -1.85589622792229
H          -1.05980381496095   -1.91354243702933   -0.77358634008546
O          -0.08702150041246    0.36365975544686   -2.33984904044998
H          -0.84490476952460    0.77604951536959   -1.88270394995413
H          -0.21630893941849   -0.59620193979064   -2.23244364915345
O          -1.95653785785619   -1.21650034406481    0.36182059747870
H          -2.30086959649518   -0.41018120572310   -0.04925767622434
H           1.02424268877525   -2.18530166358906   -0.39437316577314
H          -1.27912941620781   -0.90558742564536    0.99693635153589
N           2.02081843452663    0.56138661455094   -0.76338389832816
H           2.89055197315789    0.87391636382879   -1.17943627080826
H           1.78057226996229    1.13917161370870    0.09371268436786
H           1.21837222013766    0.60351227597185   -1.45934560292398
H           2.07675492604060   -0.44715240037466   -0.42473059189352
