    26
        -50.46627084  Gyration_radius:  2.44603740825 Dipole_moment: 6.898
 S          -1.85453151395702   -0.67229194938158   -0.26558978808240
O          -1.68546913360902    0.39790329034484    0.70735518982255
O          -2.30504324745465   -0.24969275056574   -1.56033534700143
O          -0.64462323257179   -1.50067381970638   -0.30282809067023
O          -2.99770052412997   -1.61170982273791    0.30739521557062
H          -3.58519634065900   -1.62975684562412   -0.43963824752792
O           2.43449970357074    0.64634645537280    0.03163997310392
H           3.16991759801752    1.25715705577427    0.08335110965360
O          -0.54188388918062    0.42480767963107    3.05668593110230
H          -1.13655591621481    0.40877570980716    2.27002149055830
H          -0.36918024144061    1.35315626345686    3.22714346492727
O          -0.31580483234453    1.18901861419690   -2.74797026315718
H           0.33749529804285    0.46784227775521   -2.81993567846400
H          -1.14674406181688    0.74826018692223   -2.50311050182893
O           1.33020793114886   -0.91021333317209   -2.12302910414148
H           1.91169348241308   -0.44882004246286   -1.50464570302998
H           0.60160017328234   -1.26536019790070   -1.58909351731495
O           0.26061727184581    1.96831408763736   -0.30219019261057
H          -0.48840999318696    1.50680320159661    0.11488393436362
H           1.60627890937118    1.21347802147846   -0.11219166413220
H           0.08374703068485    1.87876737664683   -1.27429245906644
N           1.08971396500292   -1.04956831968213    1.57086808840942
H           0.36237338252456   -1.31561402878266    0.83041179277261
H           0.57237681836395   -0.49516625492519    2.30264605254946
H           1.52673807060615   -1.87820524100433    1.95867020979407
H           1.78388327179136   -0.43355761466840    1.08377811438492
