    26
        -50.46627192  Gyration_radius:  2.44598394241 Dipole_moment: 6.896
 S          -0.02678002920865   -1.94931778994228    0.40565856279708
O          -1.37657651274962   -2.41591630817243    0.27055182557217
O           0.61765546586234   -1.55456085387418   -0.83869040005605
O           0.13088673498294   -0.88414313919944    1.40222959224390
O           0.80594810400115   -3.18048157120286    0.96072549705421
H           0.10126510879121   -3.79960134782659    1.11465580347226
O          -0.20644822229508    2.50017105683748   -0.22547361094701
H          -0.34339858151324    3.32147263395376   -0.69800513038783
O           2.84133312590454   -0.26053573401111   -1.29694040011243
H           2.10527705647315   -0.90477356709865   -1.17178788692119
H           2.74767825998580    0.06267113760191   -2.19552577367072
O          -2.95682954123158   -0.31912356861241   -0.46579848615905
H          -2.58166234834385   -1.18849161269465   -0.24633948121068
H          -2.84841675476854    0.21127130090052    0.34598819161119
O          -1.83108586765989    1.02762304869606    1.63786397032523
H          -1.37480049775459    1.71304057175785    1.13241007921869
H          -1.20283154499636    0.29190581086788    1.71643249480733
O          -0.82593929750466    0.53266289519839   -1.75219331376349
H          -0.47554523618395    1.75933074253781   -0.86332362822595
H          -0.28137157925671   -0.24717285986908   -1.54422733230388
H          -1.73346666841058    0.27860390457275   -1.44201910578452
N           1.76722948713931    1.02259547681657    0.76314838015870
H           1.11478977634524    1.76716702332015    0.41942325046392
H           2.33471442955546    0.64632404087620   -0.04119584470851
H           2.35355752379093    1.35473538046775    1.52074964090308
H           1.14481764901365    0.21454332807066    1.09168311562597
