    26
        -50.45082406  Gyration_radius:  2.56751248657 Dipole_moment: 6.485
 S           0.63843622100569   -2.19115467457554   -0.69066075412527
O           2.03663222642008   -2.03487756895084   -0.27306326455333
O          -0.24118923925059   -1.95935724814884    0.45836864047914
O           0.28047649494480   -1.42297561937664   -1.84556559983189
O           0.46782956063430   -3.71723563744264   -1.08147772172776
H           0.76115078687808   -4.19138981287677   -0.30895223055442
O           1.22369936155383    2.05011225470450    0.39952846971416
H           1.93393621243907    2.66970161144089    0.22968438923819
O          -2.21185203196527    1.28762641717850   -1.81752276670620
H          -2.47306802164648    0.71231652853094   -2.53835468953324
H          -2.31848757084038    0.74623853554222   -0.99797598987612
O          -2.28653500721343   -0.19750446296274    0.39205471135217
H          -1.65758514952638   -0.93659211872215    0.31802623449718
H          -1.92057876177338    0.38433438911027    1.07901849490087
O          -0.98757775586587    1.66668527542967    2.00985994210184
H          -1.63369462179796    2.37448009009910    2.03186899875319
H          -0.27640130521873    1.96305222924891    1.41858676382877
O           0.44942809839469    1.23713089245472   -1.86793882162220
H           0.50918889942900    0.26325863924184   -1.94006301548356
H          -0.52028750033254    1.41359342711097   -1.91668443969862
H           0.90371527119804    1.73851575316807   -0.52642885274841
N           1.48474695446463   -0.34676149404536    1.53228226334993
H           1.98571816704072   -0.99253015780386    0.82907604574570
H           0.53426677928986   -0.77060956927686    1.47399066181647
H           1.86254265856946   -0.38449280641667    2.47276460202255
H           1.45548925317655    0.63843511734510    1.15957791866010
