    26
        -50.46309151  Gyration_radius:  2.44647332731 Dipole_moment: 4.782
 S          -1.62492784241343    0.05528662489269    1.13397755322991
O          -2.76712022663420   -0.71458742516830    0.73347752095633
O          -0.48790769869980   -0.69483529996094    1.62091959795358
O          -1.21019697094794    1.04668513193913    0.12956709286029
O          -2.09293625805921    0.93780901713973    2.39228012008600
H          -3.03008224358595    1.04537393319413    2.26004386167968
O           1.31104233116068   -1.73097215369756   -0.25761547193808
H           1.22726636007276   -2.06273689937287    0.64054404849819
O           1.01527415579949    1.06960237960652    2.86596109989335
H           0.44895096973734    0.31854324514281    2.58097297170773
H           0.41510364144107    1.68999628884812    3.28306942784643
O           1.90866662746854    0.02575317525082   -2.42507812877916
H           1.84999400820533   -0.77838674105916   -1.89020896559891
H           2.10742805038734   -0.25631097843916   -3.31946884012559
O          -0.89416046444366    0.51248676311970   -2.53934004687857
H           0.07468902355594    0.52943930657972   -2.56128614985182
H          -1.15476246027758    0.89516366471746   -1.68676225248195
O          -1.14002394703940   -1.79666188289119   -1.15652214093474
H          -1.19416499912067   -1.09089194700923   -1.83434672598772
H           0.38235850738997   -1.82190718033271   -0.62002623245421
H          -1.80428314010123   -1.56969766147954   -0.48652411009108
N           1.36791599158671    0.90392252623841    0.21857445524160
H           0.32378428357950    1.08749976788611    0.10422664667950
H           1.45740934295863   -0.14188234089465    0.07677830707601
H           1.92699133334134    1.40057904345992   -0.46914812184403
H           1.58369161464433    1.14072967228795    1.20593448326754
