    26
        -50.46926189  Gyration_radius:  2.5491212065 Dipole_moment: 4.554
 S          -0.01756539281968   -0.42504788251927   -0.36616544745392
O           0.23568372369458   -1.66985359918969    0.34843327212251
O          -1.05999642434503    0.35569469088496    0.33251394016716
O           1.29916703650390    0.38887093277216   -0.22842214677244
O          -0.32995315462957   -0.59938667340651   -1.76217468388114
O          -1.59848892060172    1.94380771138624   -1.74578277645388
H          -1.54245670715073    1.41821854427063   -0.92650022891217
H          -1.66454211164726    1.29287202915684   -2.45061196259199
O           1.14785327050125    0.42273535065327   -3.72261083275231
H           0.55747361918210   -0.03700560105890   -3.08942374753194
H           1.87231530321649   -0.17933736698222   -3.89709819355785
O           1.82871890824732   -0.73898621667275    2.24015500891677
H           1.40271074698023   -1.26727432993236    1.53004423013379
H           2.30595076938660   -0.05149388715828    1.76636759581965
O           1.04119028168702    2.32531074854107   -1.81963094966133
H           1.23088027856482    1.85604120424466   -2.65690993297353
H           0.06246650682309    2.43562381952790   -1.81309758571701
H           1.23281741680542    1.21185906766391   -0.84520731105655
O          -1.50068500071894   -2.58990943580837    2.13622055927359
H          -0.83377193266139   -2.42947030804641    1.43206428704059
H          -1.12032034335601   -1.09996843977859    2.85889777721983
H          -2.32182617977578   -2.78658518825796    1.68253703464753
N          -0.67988592484775   -0.15225366481419    2.81403759197323
H           0.36722278836652   -0.29143077323741    2.83087029834629
H          -1.01421816745076    0.47601913210986    3.53587956398330
H          -0.90074038994629    0.19095014565818    1.81561462967323
