    26
        -50.47126088  Gyration_radius:  2.42906829353 Dipole_moment: 4.302
 S          -1.06793571308057    0.67626079430183    1.43310390067137
O          -0.83499364542595    2.11255624304519    1.46999003501127
O          -1.73389705239961    0.28205688212342    0.19594808492501
O           0.12404677963849   -0.10135844884960    1.68587119504951
O          -2.07482063302677    0.36148278051551    2.60803474093839
H          -2.71913053614712    1.05430248723000    2.50888158768163
O           1.58653908797690   -1.26864741397286   -1.45119627474667
H           2.04569108310588   -1.91149501703265   -1.99231014840905
O          -2.33703859571396   -2.24442645777223   -0.37408067566384
H          -2.22208129045449   -1.30698519833417   -0.11596600684054
H          -2.62282076261167   -2.23617681055059   -1.28914892942157
O           2.51124885312709    0.41344436021258    0.51323403783908
H           1.82581318526863    0.15788794954043    1.15731136236642
H           2.40057206354595   -0.22055776079840   -0.22022496373055
O          -0.22952007460064    0.71454550561390   -1.96852256106454
H          -0.89801255529679    0.52535059882075   -1.27820535240472
H           0.39339971319530   -0.03623364835586   -1.94113957720177
O           0.25630119697037   -2.47419495224560    0.41397334299291
H           0.21346249475206   -1.72266173642956    1.03404401718941
H          -0.66799099137066   -2.62518735597713    0.14062936463627
H           1.08051027839019   -1.79445194240459   -0.75940371159326
N           1.00956583874368    2.36737371030982   -0.36436658075817
H           0.28588192427698    2.42357618210964    0.40449892411850
H           1.35769701152323    3.28267933413363   -0.62594385283291
H           1.77898102779023    1.71596556946570   -0.01182511145577
H           0.53853130182248    1.85489435530134   -1.17318686729650
