    26
        -50.46361283  Gyration_radius:  2.49264335739 Dipole_moment: 6.650
 S           0.34458126995876   -2.29428414174863   -0.39649289225372
O           0.54033697401786   -2.10386238651646   -1.81402481460933
O           1.57838590556699   -2.10019871595954    0.36702308738184
O          -0.74263278320980   -1.51137578201031    0.16654328291690
O          -0.06276851011622   -3.81593912680103   -0.20881796144829
H           0.45857112531855   -4.22746218156781   -0.88978562669971
O           1.13517667547511    1.93889385551898   -0.50685202621871
H           1.73074092026756    2.54511176477200   -0.94879504347784
O          -2.23613257635091    0.29405293717806   -1.18188382207474
H          -1.86067453406857   -0.49082463909691   -0.74341350695681
H          -2.16873384546224    1.00516918399927   -0.52927426069758
O          -1.33692822343342    2.30412478470581    0.61568211570513
H          -1.66148119363624    3.19687651453881    0.49343223795757
H          -0.44941946886284    2.26104316356864    0.20811298646428
O          -0.97028707969466    0.09528361685714    2.28361665854935
H          -1.33735946036287    0.88821830998324    1.86451207099450
H          -1.08069198927789   -0.62056416988159    1.62493387217021
O           0.17049412672483    0.46542756992799   -2.33460873199258
H           0.40584746707622   -0.48288343582284   -2.25092848270154
H          -0.79359923896722    0.48193236079227   -2.13802776792301
H           0.77928027577327    1.32348151802520   -1.24745147352789
N           1.53692178989025    0.18777980941178    1.53066327134609
H           1.61606666233637   -0.78306344772313    1.06834395036439
H           1.53765119058349    0.90299665713299    0.77598039036272
H           0.57661476335215    0.20347439971975    1.99916813596303
H           2.29003976710472    0.33659157105015    2.19234436040905
