    26
        -50.47250313  Gyration_radius:  2.4872156137 Dipole_moment: 2.886
 S           0.80564009109243   -1.98377278193053   -0.74819933936538
O           0.59319749139699   -2.40542991185125    0.63109042415099
O          -0.37635106427931   -2.18036847051079   -1.56545049110259
O           1.34643194577898   -0.64032286074715   -0.82774692094123
O           1.91786127438969   -2.94197931559536   -1.34357383102046
H           1.44279627062122   -3.76428998653331   -1.39414620854118
O          -0.05745635703977    2.75333984367642    0.06855644270190
H          -0.09450993038914    3.67635492578920   -0.18277585952813
O          -2.21621214787516   -0.43495775122214   -1.06415698826089
H          -3.05553039016918   -0.81765198824999   -1.32382471301640
H          -1.53213271532236   -1.13383806755231   -1.23696620072545
O           2.04124287029164    1.22550202095088    0.99473498408515
H           2.04964908373475    0.59472479611086    0.25111740781173
H           1.42739973638367    1.92969550459468    0.71652796284210
O          -1.76875075635131    0.94827828106575    1.25040027812672
H          -2.02908643701658    0.44346684208634    0.45680543323791
H          -1.28153028305450    1.72205130966049    0.91399240439228
O          -0.17737793630454    1.20199932618611   -2.02010111813888
H           0.46857907749653    0.52144341858327   -1.74311909637427
H          -1.03828784701688    0.76717485393275   -1.93203528206879
H          -0.08757267858903    2.22662150112904   -0.78253327005365
N           0.32231333060495   -0.34808439602391    2.20905144310260
H           0.36659568988207   -0.55243280600108    3.20057833327920
H          -0.59394797462163    0.11881717756604    1.94233705123871
H           1.10177280227487    0.30665891339429    1.89691864419990
H           0.42526687408712   -1.23300035851466    1.63251850996725
