    26
        -50.46598144  Gyration_radius:  2.547484564 Dipole_moment: 2.419
 S           0.38313918382136   -2.16380457049981    0.21431179911609
O           0.09136735210782   -2.58147484152153    1.56511762277485
O          -0.72888215941477   -1.44565684525423   -0.40659569612354
O           1.62658978121538   -1.43173870016859    0.06255728067700
O           0.56284121773651   -3.49706607886573   -0.63090601005940
H          -0.10120830568434   -4.05692873345029   -0.24344037822551
O           0.84950724366693    2.34699665946015    0.41728572083896
H           1.45208998895205    2.37863595815386    1.16184764679499
O          -1.90135292597409    2.22165093849889   -1.05990051156412
H          -1.94872413877654    1.72225428341516   -0.23156768126568
H          -1.22948943879785    2.89320417853745   -0.91716478411742
O          -0.87487949732761    0.18696277400672   -2.53738739294285
H          -1.00912406113795   -0.54425649595091   -1.90515273926181
H          -1.39496044982694    0.93485019699349   -2.17520156840934
O           0.00714301157762   -0.53102142940379    3.22226522039769
H          -0.48138470711592   -0.83783873048481    3.98819734016481
H           0.14034710528969   -1.32488972926442    2.65599817078564
O          -1.07180007875911    0.68760371083189    1.10631465864280
H           0.09774582891942    1.76291388809909    0.71119175819710
H          -1.01614018501087   -0.11371151448449    0.54100073638756
H          -0.78294580638288    0.37760880030503    1.99008226343100
N           1.49068758627143    0.61679018216648   -1.52701128136716
H           2.28888234687455    0.75702482341691   -2.13520698583279
H           1.36089618514108    1.41355973330636   -0.85843502616614
H           0.57724677294674    0.48571769832398   -2.07876608815179
H           1.61240814969221   -0.25738613617602   -0.92943408473070
