    26
        -50.47168686  Gyration_radius:  2.4910575212 Dipole_moment: 3.012
 S           2.08951896615092   -0.88075057857268   -0.40125185892152
O           2.21432829438089   -1.01498544232065    1.04621835612352
O           0.78121891425748   -1.35352233941587   -0.84755933666522
O           2.40563440878100    0.43623756472417   -0.89256767864062
O           3.15938891528471   -1.86822082290333   -1.02097302699601
H           2.96923472665420   -2.67016018767354   -0.54650498808021
O          -1.45172282941872   -1.97428435526868    0.51991817077607
H          -0.68415353888731   -1.94780540534784   -0.08405378124368
O           0.71791616861346    2.39433372730813   -0.79350977569404
H           1.39597987648096    1.67127140490327   -0.80549995791109
H           1.20074098069465    3.21069248463041   -0.92942794999628
O          -1.03694679799985    1.77059620113407    1.19156460397581
H          -1.75534478746611    1.36498059196872    0.67293041514792
H          -0.40164111062667    2.10467539541902    0.52972091239465
O          -2.65525218569988    0.29112485476654   -0.47370494360768
H          -3.49851542271052    0.43276896087208   -0.90408939685695
H          -1.95917971247988    0.33862270516990   -1.19294472925461
O          -0.69726540916460    0.42772502941096   -2.18197150120687
H          -0.25456823044505    1.25745002968687   -1.95110477878703
H          -0.11172972992585   -0.27543450991106   -1.83322859402681
H          -2.06396917435634   -1.30079917627345    0.17169569188803
N          -0.07097110276065   -0.47945164315908    2.17754058385230
H          -0.39791196536735    0.49116490601272    1.89303689901841
H          -0.70628756829877   -1.17326451220998    1.67750818611750
H           0.90310710160443   -0.65434681304613    1.79444987297963
H          -0.09160879727276   -0.59861805989160    3.18380859562243
