    26
        -50.46489356  Gyration_radius:  2.5538292235 Dipole_moment: 4.630
 S           0.21318311329308    0.57035217659461   -0.55932351298730
O           1.18054640166288   -0.43153129467756   -0.05594626472593
O           0.35629539591031    0.64521773812615   -2.07961408063958
O          -1.15036432687889    0.15927019064325   -0.22386675984094
O           0.52994824093980    1.87082802704148   -0.00422759094369
O          -1.91338552516298   -2.18048290422464   -1.17071247826567
H          -2.83198200982805   -2.07644408561937   -1.42442862358942
H          -1.65460452748016   -1.33937373883131   -0.73365127272486
O           2.25669237800763   -2.29726422291434   -1.63826634923229
H           1.89814035439676   -1.67996489771423   -0.96851822283311
H           3.02748799262464   -1.86755120876071   -2.01297202968598
O          -1.05623402313565    3.15830451226897    1.66379172920894
H          -1.67199779365069    3.70589990066111    1.17511753224876
H          -0.44951576686458    2.77209257676590    0.99169913630747
O           0.00142006193463   -1.68651118364884   -2.96553189033993
H           0.81477641527046   -2.11667243220634   -2.62631921196299
H          -0.73011307306280   -2.02823037782836   -2.40445008256187
H           0.18759095311936   -0.29093607361097   -2.49244626506175
O          -1.44252366153033    0.61099159189849    2.35111549214423
H          -1.53679547075163    1.58661928193995    2.31106834015644
H          -1.50722949049550    0.33191025886039    1.40841210384541
H           0.03743719178700    0.50264559804657    2.49122324644682
N           1.12632093447975    0.51225774460480    2.32751550596188
H           1.25617891753387    0.02328012142174    1.37406387513510
H           1.64828408186071    0.06388586466505    3.07388319653972
H           1.41044323601501    1.48140684649641    2.19238448740261
