    26
        -50.46875465  Gyration_radius:  2.49844001965 Dipole_moment: 1.335
 S           0.59579493479784   -2.06464066726968   -0.24144742274686
O           1.50471345337433   -2.19917239907769    0.88610646147806
O          -0.69271476222086   -1.51892107846852    0.17884487135104
O           1.15813822767849   -1.35115024707505   -1.36613840762271
O           0.31238430529732   -3.53875292095256   -0.75425267384459
H           0.20423036491642   -4.03726026019264    0.04987738094189
O           1.78979498153981    1.15413036536412   -0.65557768237868
H           1.70990594386953    0.25293946190833   -1.02875480033667
O          -0.64979669665252    2.02229808879345   -1.56997629142906
H          -0.73808510821054    2.57302130862238   -2.34885649778519
H          -0.91929865885368    1.09767474008793   -1.84106824866937
O          -2.12846954312036    2.15665701283567    0.71899422040018
H          -1.55736341488429    2.20890277444177   -0.07059849639096
H          -2.98378675105260    1.84906870867114    0.41372761175755
O          -0.98995844904678    0.21432117101592    2.21159229383379
H          -1.04636355239922   -0.50640879895140    1.55415732272837
H          -1.43181598662121    0.98305091157462    1.79255531699989
O          -1.22869391815065   -0.45294864322794   -2.16695015667063
H           0.98400423114666    1.61934762981274   -0.94638729973162
H          -0.35978628576275   -0.78511183249873   -2.43631369632236
H          -1.31890764068410   -0.84365141503818   -1.27496472473871
N           1.57955162221292    0.25352837736604    1.80536763091389
H           1.67980913946484   -0.76794981289895    1.55884681795644
H           1.73339959268028    0.77852412747932    0.89473907445090
H           0.55773178901050    0.36871883120514    2.11107576343050
H           2.23558218168616    0.53378457639297    2.52540165246213
