    26
        -50.46875464  Gyration_radius:  2.49839173081 Dipole_moment: 1.332
 S           0.80696694243778   -1.48921146188413    1.34400532123714
O          -0.37743267497115   -1.56043825190976    0.49143516549514
O           2.00661789098866   -1.86619180138852    0.61303215518711
O           0.91499729554259   -0.22429838132307    2.03579284733387
O           0.61570892588840   -2.59019629012028    2.46983499882394
H           0.81607651410899   -3.40541222758627    2.02028145114866
O           1.33749935417403    1.75992576229405    0.28506177950776
H           1.29197389682114    1.13880440021984    1.03997555777325
O          -0.34584363523307   -1.07861851442091   -2.15267955725428
H          -0.47631404688076   -1.41207297603087   -1.24347770619853
H          -0.99897956446587   -0.35491731662524   -2.25970004297539
O          -2.13981606107978    0.93875110711195   -2.05857525745896
H          -1.82867266122940    1.49266093446171   -1.31778677872369
H          -2.98929162006882    0.58301760802436   -1.79146143883804
O          -1.36274586956150    2.25358814400010    0.20215552269977
H          -1.74902109111223    3.04927496217148    0.57018032284925
H          -1.55561738155376    1.51566987090635    0.84971896630815
O          -1.70767648536937    0.25848056027812    1.85100427664394
H           0.42195836899174    2.06984462785094    0.15846774403489
H          -1.48246835973377   -0.49966903580268    1.27575363066211
H          -0.91061941674703    0.33073914761633    2.39627113009007
N           1.96807195819884   -0.17053911480808   -1.38441555102671
H           1.06880542762490   -0.48488535830316   -1.87771516863873
H           2.75064158069816   -0.07918538299509   -2.02207265161125
H           1.77805081930779    0.72753690246560   -0.84969557729381
H           2.14712991318815   -0.90265791418869   -0.64539113977381
