    26
        -50.46603909  Gyration_radius:  2.42535106998 Dipole_moment: 5.910
 S          -0.84335014828463   -1.86893839614993    0.06153077510503
O          -1.40903450469952   -0.77136370146528    0.82539166270885
O          -1.39439080610539   -2.03574970268563   -1.25504805578879
O           0.62106144132669   -1.76192969459589    0.07708379156490
O          -1.19059596417764   -3.19855986941420    0.85163417173745
H          -1.50191102722659   -3.74009644778858    0.13504763015707
O           1.70142552290330    1.79400136067131   -0.47686476201038
H           2.25681647756898    2.46504841003705   -0.87364610361708
O          -1.12524409532231    0.28170001285801   -2.63152621107939
H          -1.39419581139121   -0.57916869595654   -2.26499234398571
H          -1.38158397936983    0.94886307301802   -1.97624121408895
O          -1.12606557108978    1.72285204220799   -0.18815638500443
H          -0.17253160084084    1.83930287314478   -0.31213182761724
H          -1.27106905636035    0.80516101999080    0.10620451408758
O          -0.89906693218397    1.12246239907921    2.62712063548644
H          -1.13975662857485    1.83114036420163    2.01379115568755
H          -1.36539174519140    0.34281536298042    2.27772909879674
O           1.41083206321489   -0.22219873400017   -2.02723231710491
H           1.21760029774604   -0.93975850440228   -1.39982600061426
H           0.54673798432111   -0.02699904201635   -2.46383584565800
H           1.64943433049520    1.03278926807333   -1.14569752971565
N           1.38121406945133    0.19195724700463    1.62956203725030
H           1.07937034014890   -0.66591287297421    1.06898084498366
H           1.69220116330155    0.90183219148729    0.92886210594904
H           0.53013367707457    0.57719247954846    2.13855094121179
H           2.12736048326935   -0.04644243285506    2.27370922155540
