    26
        -50.46603993  Gyration_radius:  2.42529637723 Dipole_moment: 5.939
 S           0.70991674358335   -1.87046207746640   -0.45264965974838
O          -0.22465622827946   -1.67275679226515    0.64057942759085
O           0.10352273976428   -2.16463412876001   -1.72171800651477
O           1.64502300862522   -0.73889580252309   -0.49771649995192
O           1.58160895925087   -3.14054741065178   -0.07940648008174
H           1.57879822742485   -3.59492214693021   -0.91449991767501
O          -0.18254535630904    2.51069029900997   -0.01875522011347
H          -0.36083315860487    3.42738234729018   -0.22884727920875
O          -1.65171791957563   -0.19865926449801   -2.34681144442484
H          -2.11016904737052   -0.04720862501381   -1.50594715793480
H          -1.15375622012149   -1.02855372122282   -2.24136072701322
O          -1.99528382935545    0.36282739623572    0.41300215906873
H          -1.45451242935965    1.15354394979548    0.27018645203746
H          -1.39287978415390   -0.40311881190316    0.42507428433797
O          -0.69174570240369   -0.33541850984073    2.89533904209452
H          -1.50018806011317    0.06339516348885    2.54386364750930
H          -0.57233635646633   -1.13648103419576    2.35543848199909
O           0.58579636131869    1.20682699681201   -2.08331939228241
H          -0.25270334630973    0.78151485418203   -2.38550982196069
H           0.12495400973552    2.07380940425221   -0.88144359101383
H           1.10550815668135    0.48445813553309   -1.69084173175492
N           1.24028721323052    0.86393503646878    1.52045123230422
H           0.52918611732300    0.41930412519648    2.17489612757064
H           0.78598415958462    1.67806121980192    1.04863439131493
H           2.08144268856688    1.14210768373320    2.01399528873991
H           1.47129904333387    0.16380169347280    0.74736639510975
