    26
        -50.46047480  Gyration_radius:  2.51651447293 Dipole_moment: 5.285
 S          -0.46744884108645   -1.98490842451381    0.82856176581083
O          -1.53503371938012   -1.51561283526503    1.67439867832033
O          -0.43021546054832   -1.37969896080715   -0.49368280280738
O           0.85103448393918   -1.90118683296358    1.45701884225707
O          -0.75238025397086   -3.53102264106178    0.59099235362496
H          -1.28180020489675   -3.73762717760947    1.35389839658853
O           0.96313270987076    1.95467491967991    0.59084424098926
H           1.22386546384575    2.72495954727526    1.09682850997745
O           1.44722115618996   -0.96635494246778   -2.32723242595770
H           0.73424985546552   -1.42435273241559   -1.83963687404019
H           1.00962025563329   -0.19157773227219   -2.70275831174049
O          -0.50263138500629    1.05463456439296   -1.65381568400941
H          -0.62641726856804    0.17381017486361   -1.25017899962306
H           0.05833940730653    1.53858376561578   -1.03172133898809
O          -2.77049471065965    1.96962425719747   -0.46043825269305
H          -2.07480961525914    1.64223647880688   -1.06666873215976
H          -2.98080530637242    2.86232333728656   -0.73626831168268
O          -1.21866454783414    1.12219173828442    1.64859748209295
H          -1.91795240494656    1.41940548991389    1.03585158376641
H          -1.35136228504217    0.15661028752164    1.74136940602217
H           0.12842011781424    1.60211786359924    1.04592218917400
N           2.33160410518321   -0.30782502002379    0.09669354969427
H           1.93374580593605    0.63392318082126    0.31266897075270
H           2.14211616598131   -0.54033917424937   -0.91742568458130
H           3.31955588489744   -0.35920165273367    0.31812893459069
H           1.76711058150727   -1.01538749885354    0.68805252461748
