    26
        -50.46309113  Gyration_radius:  2.44669753479 Dipole_moment: 4.801
 S           0.72976866017203   -1.51369486284274   -1.05329486487314
O          -0.17433815003898   -2.29081365043791   -1.85114717177740
O           0.74938668215467   -0.08876036827920   -1.41824430250816
O           0.62156782560860   -1.67994994462674    0.37956410057346
O           2.20810955699742   -2.03327271293540   -1.40726619699298
H           2.13196347833272   -2.34618749854492   -2.30375649229788
O          -1.31512001730718   -0.18099637770035    1.73695308119417
H          -0.92033505765915   -0.98538675539758    2.08472650484719
O          -1.56544811875408    2.51976533248717    0.85126994443501
H          -2.38234103028570    3.02143250454012    0.84796965202340
H          -1.75923457782365    1.68229817495109    1.29540931689509
O          -1.48803308516969    1.45022205670245   -1.78585174089118
H          -1.42697906058636    1.96669775018775   -0.96795057403232
H          -0.63448501833262    1.00099310506317   -1.89002023362028
O           2.84342276320345   -0.67087450531824    1.36335853877396
H           2.07529617219959   -1.21768362027684    1.08566083338003
H           3.53841779583098   -0.88037610098718    0.73722030559350
O          -2.16075047030897   -0.89729016446876   -0.62728125259067
H          -1.57272682541757   -1.52722156996006   -1.07360046275188
H          -1.69806939333752   -0.47718715142646    0.86068739367212
H          -2.14370556005905   -0.08424363690312   -1.17417894108601
N           0.88312474454419    1.08532161733362    0.87955211554285
H           0.86276523069803    0.73253558307378   -0.12638711391818
H           0.78587236644331    2.09488371000077    0.93902439807850
H           0.05092705008467    0.61017537998942    1.33083356819047
H           1.76094403881089    0.70961373579076    1.28674959413284
