    26
        -50.47229295  Gyration_radius:  2.48040417254 Dipole_moment: 1.994
 S          -0.66250486823847   -2.17961147358850   -0.07848013994524
O          -1.72456158912855   -1.90806402804482   -1.02757337476456
O           0.59767346399551   -1.56440088408507   -0.48431931456294
O          -1.00063208507894   -1.85513376040435    1.29215883242689
O          -0.43471905879389   -3.74729759018457   -0.12154609712112
H          -0.55172157540979   -3.92837519851783   -1.04805841916005
O           1.58521875218430    2.10331073379438   -0.72040335609075
H           2.07711096963153    2.73879207904010   -1.24065628916443
O          -2.16821537440595    0.64213433809969   -0.95482991230546
H          -3.11082883989918    0.78308853237519   -1.05641283556787
H          -2.04002155639548   -0.34093692788400   -0.94782107087950
O          -0.70827728059025    2.15550142364970    0.80109017052657
H           0.09824515492746    2.33249677996697    0.28389190595468
H          -1.30332402171751    1.67425943373221    0.19543610907865
O           2.41977591054078   -0.05038770127281    0.79339164662397
H           1.95055011164859   -0.73143978996182    0.27374891878002
H           2.33608745373613    0.76540221832602    0.26748431208231
O           0.31117649321586    0.41343264017508   -2.24062067345875
H           0.45488050495925   -0.39993060967082   -1.71313310841145
H          -0.62256852734207    0.62699007396668   -2.10737083362262
H           1.14357252424209    1.48501585925460   -1.37137196681026
N           0.27088873737001    0.20288533553127    2.27689107395840
H           1.24440579684520    0.11582003284513    1.85348864118421
H          -0.26443879235012   -0.65628621255891    1.96600558524172
H           0.29105335301592    0.27635754871900    3.28713709543310
H          -0.18882567696657    1.04637715669579    1.82187310057521
