    26
        -50.46214913  Gyration_radius:  2.46065256845 Dipole_moment: 6.829
 S          -0.67841840066555   -1.92015819490741    0.11166576814568
O           0.75797622677199   -1.76577266816496    0.31639199166771
O          -1.40291545699871   -1.38012263153178    1.26473352460066
O          -1.12581866899114   -1.39319304497351   -1.14786224130449
O          -0.97506964368689   -3.47088527060832    0.10240113814825
H          -0.72776551629073   -3.71351908970383    0.98752761961036
O          -0.35159129610476    2.32250679010637    0.04803586035902
H          -0.40805045687567    3.26584434896260   -0.10673057662772
O           0.12691403962247    0.19583165110064   -3.16899055797605
H          -0.24769627156449   -0.62544768610579   -2.82478218447268
H           0.88594952110486    0.38262873492126   -2.59215659743061
O           2.32975333644325   -0.21797585940685    1.81402249560646
H           1.94784534810212   -1.01400569031280    1.39566520616046
H           2.68457862112200    0.28094114833426    1.06518003654374
O           1.64818184157113    0.53289549415205   -0.84559759648257
H           1.29259030573169   -0.33089950755207   -0.56752279029261
H           1.00923930840414    1.20444269943377   -0.56374670266478
O          -1.87798586534588    1.14075151477551   -1.63438533375279
H          -1.01050501921673    1.89268795135747   -0.59243621748559
H          -1.28498116953144    1.07846785464401   -2.41305787043266
H          -1.91164808253918    0.21514345291695   -1.33228102907357
N          -0.13916374148486    0.68145634775685    2.15987098880433
H           0.88578550516227    0.39857127971944    2.15214395678101
H          -0.28326795867276    1.43501011108362    1.45330412767588
H          -0.70575171792322   -0.17488022180739    1.83668238011802
H          -0.43818478814379    0.97968048581209    3.08192460377618
