    26
        -50.46254235  Gyration_radius:  2.49152005386 Dipole_moment: 7.183
 S           0.65667989520855   -2.28212255093066    0.04698748019805
O           1.58083980769937   -1.97033428213504    1.14089233262666
O          -0.64279098070242   -1.65850136103429    0.30217748877067
O           1.18834314772818   -1.98546513494060   -1.25203066010181
O           0.41698516994835   -3.84464707385810    0.11941554226476
H           0.11927541323844   -3.95441739535867    1.01637717520909
O           1.04304721587640    1.95168700928975   -0.69592851184796
H           1.66227873951827    2.56312254383713   -1.09594330179759
O          -1.98182648836077   -0.19093381328442   -1.52735605157234
H          -2.09086440548932    0.60535694372573   -0.98832045115477
H          -1.59825758018833   -0.85811422733911   -0.92795123930645
O          -1.59522776629770    2.17356963689436   -0.00026244188431
H          -1.99823234324700    2.96650840293953   -0.35549001251640
H          -0.65299747703050    2.18838867523375   -0.26069483784247
O          -1.27160403224871    0.27715848911512    2.01539762152070
H          -1.65415241760735    0.95556996039823    1.43940749384056
H          -1.20923601594668   -0.53156416533824    1.46273446460930
O           0.47035018785452    0.24570770127711   -2.47545644137044
H           0.84726725484017   -0.60438238719606   -2.16623854295982
H          -0.50021495604023    0.11734047050161   -2.36519009810150
H           0.83920595401543    1.25477083203291   -1.42889725122164
N           1.29893176133656    0.53924203319775    1.60959215311905
H           1.51528747809242   -0.49733481575620    1.41282516370201
H           1.35197211398730    1.08609685897875    0.72479021894469
H           0.27988598678518    0.54190678168421    1.93431249522908
H           1.92505434702987    0.91139087806556    2.31485022164279
