    26
        -50.47229291  Gyration_radius:  2.48039449434 Dipole_moment: 1.994
 S           1.53618597261206   -0.08846402765186   -1.68168992631311
O           2.52347463805363    0.66171141253518   -0.93005715971024
O           0.95024149458801   -1.16281053251072   -0.88563560239914
O           0.51893445573717    0.73473817927026   -2.30281387889779
O           2.32966609889490   -0.78345129810956   -2.86438776198210
H           3.14370628868416   -1.01798371459293   -2.43167128397572
O          -1.31594399455542   -1.01162341018960    2.16805136973136
H          -1.50180387069026   -1.42155283754687    3.01296236244596
O          -1.45458242995661    1.53914793249627    1.14231462438523
H          -0.50082590807385    1.74447719986846    1.11629386230559
H          -1.52581124745281    0.70697933486752    1.64403911108746
O           1.26186205110271    1.85923959402043    0.98828823058443
H           1.66144702760946    2.72128229957464    1.11452509015930
H           1.74139576646006    1.44705002680724    0.22470120290381
O          -1.57831423380696   -1.95566746034579   -0.41392939277926
H          -1.61258892783598   -1.79329078456148    0.54604563017336
H          -0.63052154742995   -1.89822822029637   -0.64296226925231
O           1.24847143384884   -0.84068853651620    1.73846805448751
H           1.43550398056148    0.10744822139341    1.77457450237814
H          -0.32015221859293   -1.00021363317026    2.07134173866093
H           1.25458118296383   -1.05608858486969    0.78243041490519
N          -1.86203003176642    0.51409524386481   -1.25199772831813
H          -1.92720360765580   -0.52029105366345   -1.00623837622383
H          -1.80135067945551    1.04586349683971   -0.33363488985564
H          -0.93806915714376    0.64093767678677   -1.75360955914934
H          -2.63627253669338    0.82738346570277   -1.82540839534669
