    26
        -50.46926204  Gyration_radius:  2.54908038697 Dipole_moment: 4.555
 S          -0.45606003547747    0.30376855590843   -0.11960419765584
O          -0.41938022793721   -0.49917389907306    1.21048197006053
O          -0.92924686467866    1.64005474923196    0.13951722746853
O           0.92792306448481    0.30638797863656   -0.63811980771335
O          -1.31751263489682   -0.47336170027415   -1.00180220401114
O           1.72394167577742    2.39443236899832    0.82417133903353
H           1.56771338036126    1.65921281878662    0.20315594584342
H           0.99342273967915    3.00167488748926    0.67405022090669
O          -0.70993632578905   -2.89572575939971   -0.13813200726061
H          -0.56957329117645   -2.73414952460785    0.79943454932757
H          -1.16569752346210   -2.08534146983286   -0.45500357725171
O          -1.54697797435296    2.51813885846227    2.57239799383791
H          -1.39373313249361    2.29175633478346    1.63110221038516
H          -2.44639819897472    2.25215814420594    2.76750606111160
O          -0.55330378400119   -1.06456266018118   -3.47602907219672
H          -1.00581885117901   -0.82877613037095   -2.63576751720987
H          -0.46064723174285   -0.24556731024884   -3.96532960369151
H           0.69208949184387   -1.82988195801440   -2.60967372854751
O           0.68336344547490    1.03914250679942    2.87347881117072
H           0.04872569748858    0.08096558579240    1.92204100362076
H           1.26121931702417    1.56729474843824    2.27578864680057
H          -0.07766386458963    1.62452746832922    3.06150459029846
N           1.20760009073484   -2.00035557318967   -1.71561664311180
H           1.23889732310572   -1.03096630903003   -1.24355350689159
H           2.12586917973321   -2.40569229403035   -1.85739561639419
H           0.58118454504105   -2.58596041760177   -1.09860307792480
