    26
        -50.46253649  Gyration_radius:  2.45946947671 Dipole_moment: 4.994
 S           0.15982535802229   -2.02593376626232   -0.38394388331012
O          -0.05754905275349   -2.07453890812655   -1.80581445236320
O           1.54009438254937   -1.72053112862934   -0.01349456595525
O          -0.76641126937689   -1.17190220057974    0.34213688484354
O          -0.12430536068870   -3.49577620129803    0.15746922132149
H           0.20234604212617   -4.03394146279621   -0.55612926868081
O           1.11851979710923    2.11085846418446   -0.22687003982814
H           1.59806846650861    2.84067666431668   -0.62034021653281
O          -2.15175569781803    1.03825706617373   -2.22124602388783
H          -2.48264264295691    0.13801254253374   -2.24165336138553
H          -2.16096390845205    1.31218069676206   -1.28314353513500
O          -1.54458603006586    1.40737314594810    0.42463943240664
H          -1.32252172859883    0.46077213376755    0.34003895162975
H          -0.71708344447172    1.88052508183642    0.26086606198116
O          -0.72825919813938   -0.09454863078064    2.77507341162969
H          -1.28628253815260    0.65695018299963    2.53748536971602
H          -0.89165640369902   -0.74580908290397    2.06450377719073
O           0.50431143175602    0.51249774495559   -2.15451491635145
H           0.44476043935391   -0.45609774474325   -2.07084620997543
H          -0.40895422005027    0.79715882006395   -2.37522176831868
H           0.93450801386870    1.46887863593006   -0.98028775137434
N           1.64858621299436    0.25296196189025    1.63047109069963
H           1.65573947988060   -0.60646303199107    0.97769366929208
H           1.56705389400442    1.08402697821773    1.00373442850303
H           0.77789775031855    0.17800615730235    2.22640516240968
H           2.49126024673704    0.28640591122726    2.19298855146580
