    26
        -50.46502312  Gyration_radius:  2.52113197577 Dipole_moment: 2.048
 S          -0.17521158261298   -1.96010833089077    0.60754247506292
O           1.02402905827695   -1.59859516563731    1.35183650061859
O          -1.39963076522025   -1.55031382604902    1.25087181316438
O          -0.07480391022607   -1.55323437535540   -0.78671897995054
O          -0.22308509397466   -3.55071428162512    0.57591065168238
H          -0.72080732238263   -3.74320762300414    1.36402609017897
O           1.13034547328280    2.21897648086348    2.29760163073375
H           1.07164160207428    1.88888385335163    3.19588627671263
O          -2.23994650951936   -0.87855566724641   -2.11341004135418
H          -1.52163201232160   -1.22632774544488   -1.53757831167631
H          -2.07458417904542   -1.24533626914265   -2.98404915544947
O          -1.50869465498001    1.63020256950503   -1.62829114133399
H          -2.24654152812686    2.23866050728842   -1.68352585121908
H          -1.86282396441501    0.73557350815976   -1.85227683390038
O           1.10522936598041    0.64095172818376   -1.75299122621160
H           0.34130029357833    1.23369831048641   -1.79922920208982
H           0.72160446399142   -0.23670211578366   -1.54911797895308
O          -0.82520426550078    1.03253337049079    0.99522765215981
H           0.30125251105026    1.92088612021153    1.85499978220621
H          -1.08932471280181    1.26608925462001    0.08955076280766
H          -1.11402769528527    0.11499401930073    1.14909117184817
N           2.30754302556222    0.53648888940056    0.59146527749513
H           2.00366736846403    1.28912490631547    1.25931990657528
H           1.91286708002852    0.72809453162083   -0.37582815075407
H           3.31556715943231    0.43444109029642    0.56533288523268
H           1.84127079469803   -0.36650372994268    0.91435399643584
