    26
        -50.46502285  Gyration_radius:  2.52098618199 Dipole_moment: 2.036
 S           0.53894508410094   -1.64552691685212    1.11457421542101
O          -0.25797151946344   -2.41820922760229    0.19333016368225
O           1.85020656444048   -1.28505473201716    0.59169769584137
O          -0.14849187354624   -0.48567910909037    1.66380984682984
O           0.79880882722363   -2.60385665523106    2.35891398926389
H           0.80778390566298   -3.46059086845707    1.94426469117714
O           1.65953851216154    0.47850216159798   -2.91913920820002
H           2.11951921763149   -0.30791142762127   -3.21800194683495
O          -0.06198723132218    2.02896040768649    0.76251994109462
H          -0.11250013757902    1.18089283347695    1.24947715598216
H          -0.84768671411375    2.03006238270325    0.19712139010924
O          -2.77033565107499   -0.34561042727247    1.57053608812955
H          -1.80863610558369   -0.54991307471433    1.61504794043084
H          -2.98980020547194    0.05361075302080    2.41443904385960
O          -2.40851635708677    1.23070774786126   -0.53852645841918
H          -3.17999219254922    1.25781862963266   -1.10571974634405
H          -2.64228842434538    0.65394325254319    0.22858712223851
O          -0.39938502345562   -0.40489575433420   -1.53606894432905
H          -1.12415594245358    0.15957339402916   -1.21880268936446
H           0.79868564180126    0.15802635210543   -2.56180792374589
H          -0.39127621686482   -1.20163883901508   -0.97596037394342
N           2.13836105224637    1.11826460688555   -0.37033831664198
H           2.06584904470716    1.00498782965290   -1.41245586279913
H           2.99762446196959    1.58037453422617   -0.09585721259779
H           1.28646270836473    1.63377790157232   -0.00062915367017
H           2.08123855459116    0.13938423524812    0.04898856282166
