    26
        -50.46907345  Gyration_radius:  2.47627731387 Dipole_moment: 2.905
 S           0.80415006074125   -1.96383275661474   -0.69234360562446
O          -0.51097626281985   -1.56172024047973   -0.21492862395370
O           1.11032592091091   -1.48569773249977   -2.01949672837730
O           1.84581413091431   -1.64622479459429    0.27798425201485
O           0.75196566224804   -3.54700201631910   -0.78949407076961
H           1.54266661631913   -3.72315298132348   -1.28768021372020
O           0.85410484922603    2.31604177812454    0.28577572021940
H           1.36302279186167    3.11313481173346    0.13459848569473
O          -1.92733342282940    0.16589265185015   -1.59663017158064
H          -1.41365784271448   -0.52675822526904   -1.11616516147150
H          -2.58965371370329   -0.29706138809604   -2.11067339269337
O          -1.90871774574903    1.74855805181887    0.67745683362390
H          -1.02496830673628    2.13368803020416    0.59341332815058
H          -2.08204410717585    1.31128992724045   -0.17221774631180
O          -1.38273733735570   -0.44928637344485    2.09643342905715
H          -1.27203189260060   -1.05339877137493    1.34073414964737
H          -1.76175831926179    0.37355649217282    1.70504472299374
O           0.62722389093352    1.11478524500960   -1.99590564318228
H           0.95738874530901    0.19416167905089   -2.06236437908427
H          -0.33326165031119    1.02265547786217   -2.09550811997981
H           0.81057527759224    1.84638124873988   -0.60103867829680
N           1.12783110642826    0.19616818762836    1.95380020287136
H           1.48297635010217   -0.57368341327514    1.30628050002089
H           1.69621308699329    0.26000086314339    2.79032100960299
H           1.13205783766059    1.08710188851546    1.41768403392016
H           0.10082428401707   -0.05559762980277    2.17491986722884
