    26
        -50.46603980  Gyration_radius:  2.42532494104 Dipole_moment: 5.950
 S           0.27741804975526   -1.94755093275519    0.58155964576034
O          -0.69772164114401   -2.67196231199440   -0.18586226012159
O           1.31367708289685   -1.30918345272705   -0.24064043336550
O          -0.27222679239540   -0.96762871816423    1.50088478737683
O           1.02833928362837   -3.02727813531702    1.46624230299284
H           0.73350064163899   -3.82430573998030    1.04021478598739
O           0.17992563622953    2.07997272578061   -1.40660236838753
H           0.08196670732276    2.76580640689591   -2.06706007866864
O          -2.25806600672593   -0.91311119953277   -1.53099807668447
H          -1.87498577577318   -1.67015394004486   -1.05359897438445
H          -2.43371054315317   -0.23113944430207   -0.86438890200674
O          -1.72517354020941    1.05630494825966    0.43959534235365
H          -1.13883257380524    1.47634614529452   -0.20679528834488
H          -1.25980333498725    0.27493404920142    0.78953731091260
O           0.11415157703299    1.40615807523019    2.64274260206575
H          -0.69517497682693    1.77325745687340    2.26020083631787
H          -0.04008964303464    0.44498599996737    2.63823115168313
O           0.13989866193549   -0.25254757361290   -2.46039328400986
H           0.64021663271547   -0.78036771112203   -1.81458350053581
H          -0.80168709306686   -0.52246268668534   -2.33407186875533
H           0.16526410183302    1.19687961964759   -1.90612825472153
N           1.72925960519855    1.14205735028699    0.54923669445124
H           1.28118900890517    1.68563141553985   -0.22244691814557
H           1.62984094826840    0.11206575694910    0.28333788052915
H           2.70639230410134    1.38997359804868    0.65999269019201
H           1.17643167965814    1.31331828828494    1.44179416744910
