    26
        -50.45602552  Gyration_radius:  2.61292675911 Dipole_moment: 5.397
 S          -0.58236331789279    2.40575766879416   -0.77685298001759
O          -1.09488361433431    2.77693237662943    0.53279338287312
O           0.87053318830245    2.59652068711124   -0.86062141987356
O          -0.96175750407018    1.08083558626335   -1.19555930626539
O          -1.22305488509312    3.42841232185255   -1.81013114424647
H          -1.05545542295613    4.27940015097105   -1.41481151488236
O           0.66662366937619   -1.67098377541659   -1.63327377214775
H           0.72056039944891   -1.38581736994582   -2.54634030189291
O           1.39871239701766   -2.68974126951063    0.83580817354034
H           1.22170706273089   -2.54372051891394   -0.10627603766329
H           1.39406794488995   -3.63864282603326    0.96960266139624
O          -0.21183929199325    0.88133373381795    2.02538028252553
H          -0.06886949232038    1.27099872873094    2.88973751977227
H          -0.63483705512956    1.59639701468928    1.47230624103661
O          -1.11454967560984   -1.71492501191945    1.62611709368984
H          -0.22524165602952   -2.08655036445851    1.50620039062638
H          -0.98009205240988   -0.78786004450269    1.87206558733404
O          -1.79212410659059   -1.45951852457158   -0.97009093279646
H          -1.74685829110939   -1.61496970732901   -0.00130357862117
H          -1.76640602955451   -0.49332600872625   -1.08084842012510
H          -0.33033893298776   -1.66477976355737   -1.41609050221698
N           1.52782478987154    0.27352897047501    0.01960858313319
H           1.16511866513867   -0.46044423049761   -0.64730354134573
H           0.94169348767142    0.28854413976916    0.87758183699678
H           2.49801224222382    0.08868541387489    0.25469543743088
H           1.38381748140639    1.24393263240952   -0.42239372825682
