    26
        -50.45602563  Gyration_radius:  2.61273219936 Dipole_moment: 5.393
 S           1.73713995281614    1.73979103910054   -0.82626818411346
O           1.62148514675168    0.88953999593042    0.33065323431243
O           1.96721717829405    1.01581854107134   -2.06667613896036
O           0.58967324682058    2.64820992726850   -0.93782555031748
O           3.01224179512275    2.66202226359895   -0.60831135590327
H           3.11724515849529    3.09909189094542   -1.44874299693179
O          -0.82115641300189    0.10654538798196    2.28273218822508
H          -0.48759828907398    0.82281280186183    2.82457738697990
O          -2.57649490805865   -1.54952503852414    0.92279383311116
H          -3.01073970028249   -2.26032342732390    1.39659693230275
H          -2.09791017403744   -1.02873560735366    1.58604365009816
O          -0.22138109347684   -2.59698184675465   -0.19488675981533
H          -0.01532792733074   -2.04091072917464   -0.96067992199700
H          -1.11096287714180   -2.33146525633018    0.09056946493786
O          -0.01495064661429   -0.61739568124495   -2.13159676707443
H           0.80729395219710   -0.05206747415419   -2.11135369621294
H          -0.21427592591260   -0.75431162813804   -3.05946003300323
O           1.19890077372435   -1.35835725300600    1.73173106318395
H           0.82223468775154   -1.96545278466836    1.05763409189932
H           1.61704018171134   -0.63748476816198    1.22975800330013
H          -0.02149553864424   -0.51293517003188    2.14864772449323
N          -1.20727757201355    0.94617079540052   -0.24679097010998
H          -2.18722839977001    1.18641806128690   -0.35946628224705
H          -1.01767617176006    0.63253981259744    0.74373051616151
H          -0.93782726584715    0.19370109100793   -0.91079721408251
H          -0.54816919072354    1.76328506681339   -0.48261221823635
