    26
        -50.45602550  Gyration_radius:  2.61186695927 Dipole_moment: 5.381
 S           1.38549383853185   -2.12100362633033    0.54620012751652
O           1.74042774083510   -1.42030841476084    1.78609527180047
O           0.19198438216457   -2.93496772882619    0.71588702385194
O           1.31524602743340   -1.21082864873616   -0.56810971965004
O           2.57476089669257   -3.13298219026446    0.25377407128667
H           2.49033914690323   -3.78254525732145    0.94615544103496
O           1.12326413141236    1.98605989161421   -0.82341666755026
H           2.07645139041366    1.92983567830590   -0.90204459099125
O          -2.22889125948260    0.45099045744942   -1.28893909778402
H          -2.15311133377834   -0.25146778064067   -0.62641346265404
H          -2.09233445921368    1.28289966073429   -0.80669225877945
O          -1.39579620733457    2.81780647648877   -0.02437889590419
H          -0.49357979363434    2.75548543113718   -0.37406852427395
H          -1.81458229617198    3.54866399820039   -0.48129317980338
O          -1.66371707120006   -1.16707472982112    0.89591419217429
H          -2.33402042541169   -1.54482225502138    1.46803410025877
H          -0.98646398954042   -1.88734252096015    0.75944741584434
O           0.18148032474489    0.28630958318470   -2.48421557910420
H           0.76525169955069    1.37016095899223   -1.55340112412130
H           0.58896775960244   -0.45019242748956   -1.99654023974737
H          -0.76846066053126    0.27470029549393   -2.23487021110217
N           0.29582049387369    0.66436203770650    1.37237205311688
H           0.64092823542953    1.14916849920913    0.49978483065101
H          -0.59472565075065    0.16905601001816    1.16990955765594
H           0.98814007841855   -0.11844784194930    1.62846046867487
H           0.16712700104807    1.33648445357677    2.12234899759389
