    26
        -50.46627141  Gyration_radius:  2.4459408447 Dipole_moment: 6.909
 S          -0.88075433532232    0.86131510137055    1.56303264919048
O          -1.13926197794630   -0.50767549761215    1.10206217650325
O           0.07368524309469    0.93688680338464    2.63114763802127
O          -0.59994665299253    1.71776518827821    0.41997208844907
O          -2.25435379962893    1.37503796973954    2.16835606381230
H          -2.01573696212200    1.44155481449488    3.08604609072306
O           1.16733090247818   -1.38308618003981   -1.75092968546998
H           1.80839833753127   -1.54965527463004   -2.44226792537340
O           0.95278264890208   -2.28673891191625    0.97300848321045
H           1.10057019285768   -2.21107460946358    0.02121528032011
H           0.15988666710362   -1.75974852215815    1.16221369498409
O          -1.64705218998126    1.79673552923663   -1.97330539346401
H          -0.99938707620195    2.26832483644675   -2.50134908763883
H          -1.36348774750380    1.92177445297278   -1.03717876837494
O           2.43357698305366   -0.12372479679135    1.76921391051584
H           1.71805298000694    0.31892939459489    2.25578195122191
H           2.12044907754540   -1.03936094204720    1.64423260026909
O           1.74069403222444    0.82873217764133   -0.58325126087963
H           1.44365850976584   -0.51025373251104   -1.31483079733005
H           0.93084669711387    1.26500211110751   -0.26434558922355
H           2.19744861915564    0.53862563619548    0.24831872666455
N          -1.40703711198866   -0.79673293387842   -1.46012043510590
H          -2.13475537128266   -1.44354140985253   -1.74316341474882
H          -1.57188954234785    0.17383978406486   -1.83569015680005
H          -1.37820940559449   -0.70193285027305   -0.39294101910115
H          -0.45550871812707   -1.13099815848991   -1.74522782036537
