    26
        -50.46627170  Gyration_radius:  2.44599313815 Dipole_moment: 6.889
 S           0.26677701444119    1.78144216816032    0.85082758242941
O          -0.79939274318890    0.83407632247152    1.19495966408388
O           1.41073412338364    1.69841244846986    1.71242979465932
O           0.55818771556229    1.69413871917432   -0.57292692494748
O          -0.35124892620550    3.22378955293736    1.08549033869909
H           0.19672659589436    3.52296422548867    1.80225143159255
O          -0.37941499122401   -2.38384447926179   -0.72156213062648
H          -0.18575732450337   -3.18490709567000   -1.20878549052629
O           2.43264670022781   -0.82575578094591    1.56707885122666
H           2.25998595399411    0.11561680305636    1.73639684432187
H           1.66848702301659   -1.29281300926261    1.95444716574931
O          -0.12121822263163   -1.68699601926845    2.05816937343439
H          -0.27938961381973   -2.13451249687559    1.21662782833620
H          -0.40940480961699   -0.76908157120873    1.92971764146054
O          -1.00123929159178    1.35385036116442   -2.64256385084967
H          -0.41429317523213    1.03562439013816   -3.33173063261709
H          -0.40977349342115    1.66750867869612   -1.91859408626653
O           1.60309890391239   -0.76693700953224   -0.92873317487189
H           2.08730559544928   -0.88704082208628   -0.07113844097485
H           0.43419514914550   -1.78768305997539   -0.82374749483489
H           1.29840356640188    0.15721784004329   -0.89696515676322
N          -2.00389973181658   -0.28381259941457   -0.81010588897267
H          -3.00779388502594   -0.38060903604474   -0.70588690376842
H          -1.58113308569921    0.21632646591114    0.03821883287606
H          -1.52549621059331   -1.21458057037729   -0.86315244361720
H          -1.74709283686787    0.29760557429547   -1.65072273917439
