    26
        -50.46253654  Gyration_radius:  2.45927643347 Dipole_moment: 5.009
 S          -0.61841479189174   -1.54241900681813    1.23108898907882
O          -1.79973928323315   -2.00906443820807    0.55453724460248
O           0.62051961787280   -2.11031821579529    0.70355402259428
O          -0.51337060605314   -0.09624365534228    1.34050553079594
O          -0.73330464623554   -2.06096669782072    2.73202753211447
H          -1.14228434553016   -2.91232237930847    2.61568816822113
O           1.03241791050462    0.50188592096545   -2.10846427050056
H           1.22402265694087    0.48213089864966   -3.04668680429623
O          -2.78668561125235    1.17707533378405   -1.22185228978850
H          -2.05375106592856    1.73678267535594   -0.89843042329256
H          -3.21694324044795    0.82058040859479   -0.44196561530940
O           1.50569407086734    1.54746226205663    1.89053993380057
H           0.74185411530141    0.95498699619875    2.03662543575237
H           1.13387734972071    2.29432238473996    1.40411359225325
O          -0.39349974415838    2.08236686963468   -0.24218283248099
H           0.13321232876934    1.76921720394943   -0.99043232729631
H          -0.51793740896130    1.30244484683454    0.33122150234327
O          -1.11563273958171   -0.88368359232036   -1.76845843813002
H           0.22569919136471   -0.08716459342819   -1.98328562403990
H          -1.30733198228209   -1.42309146647913   -0.98044814935054
H          -1.81052322968158   -0.19024371903152   -1.76752684797329
N           2.31235575124001   -0.26552258811287    0.11760800124674
H           3.27861074719377   -0.57150329295876    0.09787140515946
H           1.98874535269737    0.05894761564801   -0.82059534311408
H           1.65689540072354   -1.07912434406200    0.38816193880913
H           2.15551419204198    0.50346454327349    0.82678569879990
