    26
        -50.46885301  Gyration_radius:  2.44092954851 Dipole_moment: 4.311
 S          -0.89199770793128   -1.72083201985319   -0.01140658417361
O           0.07291017385995   -2.56057726662554   -0.68296263152754
O          -0.43605132155130   -1.17608938246585    1.24937546600762
O          -1.38267712793612   -0.66091708794712   -0.90135807769702
O          -2.13336345251172   -2.64156620874672    0.31414063193718
H          -2.06191771331292   -3.28905362774010   -0.37813766169509
O           0.75858027259029    2.38004552273828   -0.15071556921928
H           0.86273495345298    3.33041855337329   -0.09841698971920
O           1.93859046771435    0.09421508029194    1.06068209542512
H           1.65273584469485    0.97702352325618    0.78675555916821
H           1.12298491630247   -0.39856439125253    1.26435310649742
O           2.36282636706927   -1.29351917125728   -1.16916717372866
H           2.48696351719037   -0.86297703806061   -0.29210368793010
H           1.66704018203382   -1.96557778522488   -1.01465802124719
O          -1.67318967024685    0.61227995599532    2.78860893110065
H          -1.05312896111531    0.81281784976205    3.49181918692119
H          -1.29670279216421   -0.15192498058535    2.30799942596720
O          -1.69136998074677    1.72970768457719    0.32498709338573
H          -0.20227717228293    2.18579982849818    0.08569284136558
H          -1.74656480757957    0.87433708810249   -0.14076643761153
H          -1.81421308410529    1.50437512536746    1.26816374425621
N           0.69322000841872    0.46232689239648   -2.05267868840701
H           0.64425164246640    0.67579290990258   -3.04230741542448
H           1.48861049690224   -0.24487579419898   -1.81616360064778
H           0.82998274123909    1.32103576209463   -1.47897640430546
H          -0.19797779245161    0.00629898760312   -1.71275911869833
