    26
        -50.47190989  Gyration_radius:  2.46930928155 Dipole_moment: 1.483
 S          -1.37608328439439   -1.42562868113235    0.18504877732426
O           0.00873084856463   -1.84570379435381    0.07981392977165
O          -1.97508272291011   -1.65225083811385    1.47715608592380
O          -1.55605521790558   -0.06360556323871   -0.30371247465688
O          -2.18085444117934   -2.36657468607391   -0.82354072475345
H          -2.95946715799954   -2.59501677794665   -0.32625310920448
O           1.27559410285764    1.61381251448509    1.74135717380485
H           0.62616044080376    1.11468021463330    2.27517347525165
O          -0.58544125961388    0.06412108519551    2.92603730072200
H          -1.14355251745105   -0.52819024875605    2.38094684817043
H          -0.48560396116767   -0.37580313326130    3.77217928622094
O           1.45005302672222    1.09449066523190   -2.19103908229832
H           0.88734743690895    1.74689959287559   -1.74287913794612
H           0.82561973914574    0.43311948959197   -2.55773926560766
O          -0.41987074244278   -0.79752966841483   -2.59268122482218
H          -0.95138627797518   -0.50031910763133   -1.83162297412895
H          -0.23797109505852   -1.72234793606959   -2.41470266416775
O          -0.32817340944819    2.27019138715244   -0.39407572015612
H          -1.01333546114894    2.93592561274863   -0.46747257607449
H           0.74226501601507    2.09448359609431    1.08455121629700
H          -0.79881352016807    1.40883719539220   -0.32674798820595
N           2.06886245182297   -0.19426012047278    0.01350760886965
H           2.97366508275315   -0.63820032620573    0.11664991758773
H           1.29439975869981   -0.90496786307982    0.05939999315479
H           1.88410921805210    0.52296579997287    0.78284705639381
H           1.97488394660276    0.31087159146069   -0.92220170737239
