    26
        -50.47027110  Gyration_radius:  2.49073504238 Dipole_moment: 3.345
 S          -2.03694673295999    0.23141888635482    0.01235133056890
O          -1.76804813705079    1.04489730408436   -1.16696977933931
O          -1.63895460802696   -1.15302827053038   -0.19494941278008
O          -1.50351526364045    0.81164279985105    1.22605293983382
O          -3.61074057159295    0.21293554752219    0.18979132705586
H          -3.90158589589953   -0.18007121903102   -0.62649476402659
O           1.87137956425441    0.00894670860136   -2.66427345969686
H           1.47328472541960   -0.24493766792287   -3.49823655192661
O           1.63182597490432   -1.18313357351968    1.74100818776638
H           2.21587429799823   -1.66236710203390    2.32948928907734
H           0.70243139491763   -1.37975681938983    2.04146868614694
O          -0.90799770268355   -1.54836900702467    2.32596205465435
H          -1.19151404666284   -0.62547124097608    2.41344741444251
H          -1.21973747791109   -1.77042998383581    1.43041531879753
O           1.08594971186099    1.46794167445112    1.31447054635228
H           0.12408656533046    1.34812026889120    1.44695980904456
H           1.47094583963081    0.58954075849770    1.48629092399889
O           0.91546355220489   -1.65808777356704   -0.89388202221817
H           1.60058800561817   -0.69411587619061   -2.01343709186489
H           1.32334668595397   -1.56015604600601   -0.01791478237458
H          -0.04118045635684   -1.53154086971369   -0.74755950138492
N           0.69371435506021    1.91673346343918   -1.24058290544292
H          -0.32793227849237    1.62887852571591   -1.26390662754278
H           0.80265931410238    2.87911031197901   -1.54028387830665
H           1.00447378801771    1.79592433470337   -0.22707874539979
H           1.23212941591967    1.25537484554765   -1.86213833558947
