    26
        -50.46286128  Gyration_radius:  2.61368297492 Dipole_moment: 3.458
 S           0.88925488373124   -2.14324878997144    1.03951307901196
O          -0.11144277729568   -1.76179102657615    0.01998681084394
O           2.23418011914750   -1.88348882526554    0.55738718773624
O           0.55927165937726   -1.57947107340345    2.31431903592520
O           0.77944679698716   -3.72467538736077    1.16257102954999
H           1.25744970129605   -4.03069522510647    0.39765744899258
O          -1.03513250808116    1.90254739220940   -1.67725227686203
H          -1.05612390640684    2.39649936137451   -2.49724106053647
O          -3.19376143127105    0.94247106714090   -0.32488587120505
H          -3.49762006427872    0.21006074648916   -0.86405518151642
H          -2.50116231488023    1.39746825043981   -0.84664777892603
O           2.51316633137112    0.57552740943855   -0.18579648097569
H           3.41713156355165    0.82724081098594    0.00957329380266
H           2.42351334501840   -0.36398682491110    0.12867741463063
O           0.43867262755579    2.11494473124573    0.66961165230955
H          -0.02308740946651    2.31102240614982   -0.16230275735197
H           1.24804665476229    1.62691357151811    0.41889477667551
O           0.53582064408422   -0.14881385885386   -1.99833924811196
H           1.38363224305124    0.16199584013971   -1.64826426339009
H           0.25752025590790   -0.84252631316303   -1.36464647480120
H          -0.47583145711762    1.08986018933993   -1.85228987950860
N          -1.23320199261858    0.18884003641701    1.36060705655151
H          -0.84725216906193   -0.63078513297723    0.81271198323760
H          -0.55028103474672    0.99504662468121    1.23123829732635
H          -2.15509546906908    0.46559664410944    0.96319303458239
H          -1.25711429144842   -0.09655262391512    2.33577920185183
