    26
        -50.46286146  Gyration_radius:  2.61375315656 Dipole_moment: 3.453
 S           0.49693843369972    2.15149306768389   -1.26010109775181
O           0.46410640152612    2.93766801219899   -0.03956949484233
O           1.16081413321463    0.85165293520586   -1.02430033457929
O          -0.75936014735815    1.96970219661583   -1.92376713162691
O           1.46082140646697    2.94099876771894   -2.24812537648709
H           2.14373740242854    3.26090797246301   -1.66625800812126
O           0.15388270850341   -2.32968137388916    1.43427476492192
H           0.43688831841245   -2.85125158727781    2.18575210298580
O          -1.95185767790402   -0.57236989948160    0.98374932164375
H          -1.39403767610370   -1.29103860806776    1.32434961623987
H          -1.57763881608307    0.25410681915095    1.34876822775438
O          -0.64870252652637    1.63521752226390    1.89483776019382
H          -0.24838126469502    2.15549315827118    1.14735381838098
H          -1.10875313484202    2.27718327031981    2.43780847215423
O           0.13845689928703   -3.13370374333104   -1.16600164415067
H           0.11137585059409   -2.97959109243560   -0.19929243418199
H           1.06588252410855   -3.14878575612087   -1.40908899894389
O           1.48327423235707   -0.09075475033884    1.44609471545205
H           0.88529800931735    0.52222699408769    1.89820227515363
H           0.72589161500814   -1.50713695229813    1.43105602107005
H           1.51688993721301    0.24496633747777    0.52608119369475
N          -0.92461938307488   -0.67542943871546   -1.44855320545731
H          -0.66372848500809   -1.67257474504338   -1.59730237105201
H          -1.45188867756124   -0.25428844744881   -2.20851289775769
H          -1.46950276782794   -0.59786692432726   -0.53736930422229
H          -0.04578730514983   -0.09714374462905   -1.33008599043337
