    26
        -50.46975361  Gyration_radius:  2.44534412852 Dipole_moment: 3.704
 S           0.17180408478402   -1.74909055564721    0.72505893005118
O           0.88192887581909   -1.64442404111908    1.97575055999708
O          -1.08143919741228   -1.01957304547958    0.70321344012359
O           0.99883365384422   -1.40013294780225   -0.43301942524537
O          -0.17270694368360   -3.28700475503302    0.54165409630318
H          -0.00966566831087   -3.60615119901397    1.42214836341678
O          -0.66679891911132    2.34391150761278   -0.91075936432033
H          -0.89539468635883    3.04178415146247   -1.52508360683938
O          -0.23121193001030   -1.54332035382318   -2.78827477153029
H          -0.54857805534481   -2.43991385856048   -2.90669649799149
H           0.29464449692838   -1.54856707873953   -1.96235425234640
O          -1.15133038436114    1.46530849096758    1.80033132390947
H          -1.16291180356406    1.98787464201362    0.98829394194355
H          -1.29108123382378    0.54435926469774    1.51703106456373
O           1.38192288733259    0.94864390672777    2.38784755323992
H           1.30449462603968   -0.02706758396963    2.42470739279834
H           0.45084114310665    1.26937335761907    2.43064843531255
O          -1.91941890524925    0.17608672738535   -1.54187427410160
H          -1.79385447471381   -0.30432086980660   -0.70075286927092
H          -1.19688672617119    1.53521474453763   -1.19398915843137
H          -1.41002548146015   -0.34279784939876   -2.19382850444969
N           1.62911916396889    1.13924696364439   -0.17469751520990
H           0.82129309862685    1.70395054705672   -0.52246952493019
H           2.50401188397022    1.45587379303191   -0.57749463451112
H           1.64087167792060    1.17440153390481    0.91438782984877
H           1.45153879723017    0.12633450773062   -0.39977853233154
