    26
        -50.46975285  Gyration_radius:  2.44510758848 Dipole_moment: 3.662
 S          -1.51894020840373   -0.02596436448536    1.14301412101178
O          -1.40648414463792    0.85278111596968   -0.00559001319487
O          -2.25633323145118   -1.23580617531989    0.87529857974853
O          -0.20477184097931   -0.27585331021368    1.74001385223460
O          -2.33805635277371    0.75365043053148    2.25603655407411
H          -3.18084207142319    0.31909043178388    2.18718596980555
O           1.87835555908452    0.37228850306208   -1.75961441021713
H           2.69910088745352    0.66858642360990   -2.15358236227723
O          -0.86419582841235   -0.25071571800273   -2.42835792906444
H          -1.20293495842678    0.24053408022250   -1.65899370152622
H           0.06517876166775    0.00049388686744   -2.50416406964300
O           1.24014419520955    1.89921999473905    2.25072632433173
H           0.72546147297375    1.07126739714364    2.15943653688394
H           0.74253683472930    2.45631275230669    2.85124120503542
O          -0.97302311299682   -2.53010903682640   -1.07898807444865
H          -1.06041004142149   -1.84692137701526   -1.78420218891118
H          -1.57752077427083   -2.22633916981463   -0.37063910426450
O           0.81631436247534    2.29297722781656   -0.39979166930025
H          -0.08261497820420    1.92022668325900   -0.31529099656891
H           1.15936832855092    2.30349725777113    0.51452052617480
H           1.50369402784194    1.16412707089843   -1.26158760792873
N           1.20099569666141   -1.59589030021719   -0.04758223781397
H           0.75481000909691   -1.07558944970740    0.75123579091405
H           0.37263806389811   -2.12216972642718   -0.52153963737364
H           1.58904707795582   -0.89894235208910   -0.72298469951344
H           1.91848226579999   -2.23075226585977    0.28419926183085
