    26
        -50.47229298  Gyration_radius:  2.48031379848 Dipole_moment: 1.997
 S           0.84817490648554   -1.77692148595612   -1.14781914308664
O           1.31394433099613   -2.43921850076586    0.05506849565478
O          -0.52947270277108   -1.31322147744479   -1.01293495022370
O           1.72477839471051   -0.72347311868277   -1.61708612308118
O           0.84273342166337   -2.88796631129146   -2.27805760095858
H           0.55609749483791   -3.65166356863394   -1.78865306676496
O          -2.01255080765348    1.40775311621834    1.19470369269566
H          -2.76840325416817    1.63926966268193    1.73462364785530
O           1.38492327237539   -0.64447920107962    1.92034565491755
H           1.41095911184943   -1.32309957019905    1.19804609631495
H           2.14856068413686   -0.81964692166643    2.47249978787020
O          -1.76263464084720    1.02301648644435   -1.52885366265186
H          -2.04026201422652    1.25186745596985   -0.62352918035614
H          -1.49190345509960    0.08596844650739   -1.47725428807406
O           0.69011820915370    1.92377407884429    1.26750125042599
H          -0.27910753765045    1.89514953785493    1.36287480147470
H           1.00457223512491    1.04679923066809    1.55823095765465
O          -1.34974246779987   -1.09263785416945    1.50831574911670
H          -1.12430773759642   -1.30490683733683    0.57848930313488
H          -0.49675307277251   -1.05976911330735    1.96288574447213
H          -1.83490615626398    0.43649116251791    1.35664387770465
N           0.76826094917390    1.69302728834765   -1.35717313061280
H           1.19945486440474    2.41014067019649   -1.92831798146095
H           0.84961243482928    1.90364172216202   -0.31837010613067
H          -0.26883516215316    1.57162320685629   -1.56722537956068
H           1.21668865925175    0.74848189526099   -1.52495444633743
