    26
        -50.47395387  Gyration_radius:  2.40829936606 Dipole_moment: 3.048
 S           0.81777944517034   -1.01416601968228    1.18622377958062
O          -0.56854201990142   -0.55394214895273    1.33128105030062
O           1.18814801227255   -1.09511088204478   -0.22066163461264
O           1.73607321959808   -0.19840799163732    1.94850672033865
O           0.86904713396008   -2.46746798792971    1.77353120882331
H           0.12437070939702   -2.92060693864305    1.34887142755768
O          -1.11235827853338    1.18395536712424   -1.98602280308944
H          -1.58441533793712    1.39247697448741   -2.79315059654936
O          -1.61463693430324   -2.81105699678299    0.67897225396155
H          -1.40153894917874   -1.88033969109510    0.93052204076735
H          -2.31454269141896   -3.10203952266126    1.26654025085178
O          -1.16675158976553    1.95477748141027    0.66623996795991
H          -1.29581256193368    1.83109745433524   -0.29025081252953
H          -1.11071884903724    1.04464263099493    1.02307060220197
O           1.63005220214041    1.16564403385384   -1.59544135671245
H           0.71419673510996    1.28022731607867   -1.90825684675316
H           1.65022375318842    0.25669397831036   -1.23485763926616
O          -0.94430228672934   -1.43716779888211   -1.74862398920794
H          -1.13597944919880    0.19580879019654   -1.90030623878556
H          -0.08740278326559   -1.39641105197476   -1.27325929888102
H          -1.49214202444128   -2.01694546877163   -1.20832186102440
N           1.44065046758126    2.15275342239660    0.81675311387506
H           1.94511867693171    2.96318151608253    1.15751883183725
H           0.38136613287346    2.27544000505169    0.84858430066313
H           1.67239428932901    1.91049960343456   -0.19732395845204
H           1.65972296944379    1.28646392577110    1.37986150773466
