    26
        -50.45688653  Gyration_radius:  2.60639505108 Dipole_moment: 5.408
 S           1.32904350707194    1.60569541365518    0.58883428711667
O           2.37664298989836    0.61292909198795    0.36118300404581
O           0.51339899721470    1.78416335767585   -0.59426446239013
O           0.54923334179479    1.32246803380569    1.78138906107140
O           2.06772838827981    2.97792031448643    0.87171945172072
H           2.60284945218008    3.09027310657007    0.09250367521979
O          -0.90439028682713   -0.32896172707036   -2.12266565737397
H          -0.31667044136537    0.33678917893019   -2.49218728500928
O           0.23052233304269   -2.93372942861975   -2.45518344953024
H          -0.33993476884020   -2.16188046378700   -2.57992043815044
H          -0.01282147233206   -3.56979933980916   -3.12838311393709
O           0.05702337685544   -1.20111352733395    2.31751672918182
H           0.26347802307580   -0.24114391097443    2.20750318300855
H           0.62489883104861   -1.51382738596561    3.02316456580474
O          -2.14322110431857    0.87935626074178    1.97929484504073
H          -1.24576441567830    1.25275565897724    2.00626956119037
H          -2.04592735781858   -0.03674202599907    2.25211950944177
O          -2.17185871938275    1.41727359883422   -0.68830614301726
H          -1.28328968148310    1.81220902739704   -0.63280025948773
H          -1.57211296823398    0.21791299487407   -1.61901254915903
H          -2.40772157292365    1.21586878879596    0.23639380008776
N           0.77239121262760   -1.32681812595864   -0.27933414777932
H           0.04577451635988   -0.88537010405499   -0.90586752762511
H           1.54591847885626   -0.61757648407287   -0.12016568127454
H           0.37615388555390   -1.53686765582517    0.65908175001193
H           1.08865547533856   -2.17178463724946   -0.75888272821266
