    26
        -50.46263506  Gyration_radius:  2.56866296566 Dipole_moment: 3.556
 S           1.94448603813927   -1.34728366596340    0.14831290191936
O           1.92326265006388   -1.85518952667981   -1.20179442480943
O           2.58662536994234   -0.05793267751331    0.28833151639586
O           0.62514862524179   -1.34788060805629    0.79345940688448
O           2.79198791386958   -2.39102285703784    1.00024768670684
H           3.51033993789435   -2.59629119165998    0.41074352280130
O           1.14556534433168    1.82706638996512   -0.89407681881700
H           1.93348218354270    1.31004125447285   -0.63544250950650
O          -1.59999428237332   -1.81359751891912   -0.54386487170825
H          -0.76069540752657   -1.70545344287757   -0.04009920278255
H          -1.99147948308456   -2.63499751679189   -0.24520002362845
O          -2.35117333772600    1.81026471153891    1.69374511088226
H          -2.67752477177514    2.71015784157916    1.65166486814237
H          -2.54537158592624    1.40455426797377    0.81397455264260
O          -2.49915082711958    0.74636233200974   -0.72676813076338
H          -1.83604028951817    1.05184234913238   -1.35246263553133
H          -2.33267389358666   -0.20925381288351   -0.62171449944779
O           0.06509585831556   -0.25432991680698   -2.21469598473982
H          -0.69787458064670   -0.81164984390823   -2.01989300469430
H           0.68459798508054    1.23775518672940   -1.52417814437374
H           0.82843319511186   -0.83223005000021   -2.01558876171605
N           0.24029306506936    1.16362917668496    1.47352838235594
H           0.53242778433740    1.58824082185411    0.53405386809516
H          -0.74994094829528    1.42124124979927    1.70090365270814
H           0.34462367718011    0.12316742236015    1.33003059077310
H           0.88554978947846    1.46278961497588    2.19678293220164
