    26
        -50.45493791  Gyration_radius:  2.63917456433 Dipole_moment: 5.971
 S          -0.47547836090699    1.82988684400634    1.90232691821363
O          -0.24060290572632    2.76592426491335    0.79394739963349
O          -1.31009701907554    0.73249985689488    1.45497953835570
O           0.74779888976788    1.41007575577542    2.54660108348842
O          -1.30631395694775    2.63290046461429    2.99033628627289
H          -2.15094911108491    2.76473538681917    2.56961381123005
O          -1.51800045343407   -0.45778513015360   -1.80872944320204
H          -2.35429444345136   -0.00870331703134   -1.93426196209491
O           2.09111616891708   -0.04513131072314    0.91537725198870
H           1.57699395523691    0.45182349865906    1.61157469030162
H           3.01597593856618    0.09000304416439    1.12856923653409
O           0.84493869803146   -1.67641836576643   -2.54857333719642
H          -0.05957121035590   -1.33336538484191   -2.47349018281275
H           0.79344363353864   -2.46549480851857   -3.08973682099825
O           0.92753784626413   -2.44110329386981    0.14579977012171
H           1.39387707723890   -1.72463676960473    0.60062715792591
H           1.03706976193968   -2.25819333377099   -0.80213531120129
O          -1.64682376604628   -1.70538188129342    0.40214182041265
H          -0.75755392198558   -2.12261858989942    0.44416920442435
H          -1.59150280592276   -0.90685197546708    0.95909505742089
H          -1.63206612748093   -1.01143283690979   -0.95306094371754
N           0.52932732312081    1.09548388124927   -0.99407481434234
H          -0.28775372891873    0.50662025684067   -1.30163829157824
H           1.19490860273014    0.52181418695141   -0.43635791965357
H           0.99963097344494    1.48983764046295   -1.80273080685044
H           0.17838895252170    1.86551193656379   -0.32036941259137
