    26
        -50.46911883  Gyration_radius:  2.45465123634 Dipole_moment: 3.999
 S           0.64970034272543    2.10933236842744    0.37776539119778
O           0.43292682985321    2.82904981672881   -0.84355468277238
O          -0.55874182435451    1.53911389423858    0.95743706062791
O           1.69242483524085    1.08128019775575    0.27920162697777
O           1.19167005840706    3.16968130374674    1.43380001735218
H           1.37627282291094    3.92571416077828    0.88519383831060
O           0.54814731101418   -2.42685350374867   -1.04134405405945
H           0.89149140659572   -3.09401932335420   -1.63593451473399
O          -2.07059820787976   -1.61433598795130   -0.31229327367769
H          -2.13747532373970   -0.78355416808655   -0.80156621285044
H          -1.26430773917687   -2.04705688546027   -0.62937023161434
O          -1.32288517401276   -0.76043156151432    2.10776228427337
H          -1.24058064445986    0.18773976532367    1.89939192674998
H          -1.79081734686457   -1.14549572597711    1.32939289064358
O          -1.60791154763396    0.96659257707657   -1.39127681604514
H          -1.30811393187569    1.21914840228748   -0.49139161671168
H          -1.64157419830075    1.79458357018470   -1.87642543862246
O           0.83913269224133   -0.04924697947944   -2.02069402827675
H           1.31590578714082    0.45569581318169   -1.33959573522114
H           0.68351953419270   -1.54204121723933   -1.49776415776684
H          -0.06575821942111    0.31888969088387   -2.01162771411886
N           1.10050581780829   -1.24566737463948    1.33942026575840
H           1.77076029924677   -1.60329822222562    2.01012183550982
H           1.39825905532078   -0.29277353218873    0.97896812570542
H           1.00626892121126   -1.87542539504366    0.51899278520889
H           0.11177843649373   -1.11662167070858    1.77539042783285
