    26
        -50.47229308  Gyration_radius:  2.48044935441 Dipole_moment: 1.999
 S           1.25778741999333    1.86418846368831   -0.37082547065793
O           1.89638667467704    1.29983601902525   -1.54401093553061
O          -0.19058977089545    1.68461900321268   -0.40237160164309
O           1.82635878834333    1.41401282180930    0.88317474733124
O           1.52202501484591    3.42512031560367   -0.44495831743905
H           1.45379424067913    3.58171628232504   -1.38075184059186
O          -2.28876315030428   -1.48038924314985   -0.16575956254680
H          -3.07165349553732   -1.91513411189448   -0.50419218449685
O          -1.98877439987536    0.78368467624645    1.38636448390558
H          -1.48599644838933    1.29768020375462    0.72526457981176
H          -2.30227032129239   -0.00265722622782    0.90413893993701
O           0.19147639528912   -2.28960392045007    0.71326225305641
H           0.72522540268678   -2.00248194286058   -0.05167675450319
H          -0.73624118700861   -2.19110394644748    0.43246510714513
O           1.53311312104529   -1.26207368985713   -1.44287346659290
H           2.32391698702083   -1.68816787622819   -1.77724786628345
H           1.72159098461060   -0.28887092781914   -1.45902376167179
O          -1.00040397550748   -0.23450325159624   -2.05715104878669
H          -1.86469959179385   -1.01422192448975   -0.94293782245304
H          -0.74226798265401    0.56837532443816   -1.55785550650138
H          -0.17770468995828   -0.73308326034828   -2.15645186945044
N           0.28693310835721   -0.16985703039793    2.27759094308135
H           0.51073339542309   -0.26111312899220    3.26146305463963
H           0.96004624927317    0.48695384200915    1.79095430068617
H           0.32727292612923   -1.10198887549142    1.76828971958435
H          -0.68729569515659    0.22906340413758    2.11511985997210
