    26
        -50.46254363  Gyration_radius:  2.49176299022 Dipole_moment: 7.204
 S           0.91299950740457   -2.17904911067056   -0.24542340246351
O           1.82416499707155   -1.89546594450926    0.86719386296400
O          -0.44119693083997   -1.74388183964710    0.09925647893477
O           1.37339607101208   -1.67096317436038   -1.50557447927497
O           0.85543376406586   -3.75642473237617   -0.35914905655433
H           0.62516185893989   -4.00788006568725    0.52909551558845
O           0.79528199085936    2.13028544273886   -0.46021506764432
H           1.33077101131914    2.85324303885943   -0.78871140920008
O          -1.98678797406486   -0.23086018133090   -1.51830101891292
H          -2.17186353878232    0.47538296631090   -0.88315964591858
H          -1.51471476318149   -0.91740688449365   -1.01109395091772
O          -1.83264955539315    1.95791714970286    0.28703362803406
H          -0.90516488044448    2.11373799092817    0.01996265932309
H          -2.33239614915292    2.73577101755475    0.03670986196784
O          -1.24628085986480   -0.12120212725596    2.04720841916061
H          -1.10572041333987   -0.84317953880200    1.39732388583683
H          -1.71777174365072    0.57373596851814    1.56442999014657
O           0.37691139305138    0.59710609890685   -2.42988128515116
H          -0.56997283692954    0.34537554128046   -2.32674647547537
H           0.65410944967131    1.50811443481719   -1.27087229086920
H           0.85485747741338   -0.23554357046112   -2.23324335704971
N           1.26640383948229    0.48645231514843    1.64974036270673
H           1.59525067978831   -0.48552743524109    1.32244118101457
H           1.23475691295602    1.14036645601896    0.83970135397894
H           0.26201879741930    0.33039524305404    1.98273858119769
H           1.86300191519150    0.83950096099640    2.38953566857783
