    26
        -50.45118721  Gyration_radius:  2.60809736454 Dipole_moment: 6.431
 S          -0.38750090285335   -0.28543539855719   -2.18029914530099
O          -0.63148163791670   -1.62907305948664   -1.63374264636415
O          -1.17997914108800    0.67905916850984   -1.43326847046255
O           1.01209905767502    0.02694034669339   -2.26017105261392
O          -0.96893740313760   -0.28421379784578   -3.65758447404540
H          -1.89659987963542   -0.11973855439061   -3.51714057308333
O           1.83871187573933    0.08180629447077    1.57464715912368
H           2.63852696248187   -0.44198659590295    1.62820283737710
O          -1.07343172238404   -3.53661508999080    0.33577228497028
H          -0.95323841474246   -3.06050358614581   -0.50216777758480
H          -1.06032072046099   -4.46964338484815    0.12021218510313
O          -0.31059353955646    2.77439618135005   -0.01726512094966
H          -0.52825181376095    2.44417329143641    0.86564584854523
H          -0.70565061146144    2.12812017319285   -0.63372055112662
O          -0.42979792561440    1.43589862887752    2.49964876473313
H          -0.41170223420287    2.09929456470835    3.19080843023909
H           0.47920418175142    1.11448497141438    2.39543792301528
O           2.07016218859848    1.63263866554483   -0.41891364470874
H           1.31241262206790    2.25185246776746   -0.30899360171177
H           1.98488648081589    0.72382506407027    0.78466513579706
H           1.81717194724990    1.07450209388510   -1.18324571520661
N          -0.53071895011337   -0.92520179290984    0.88681109237771
H          -0.79769367296845   -1.82259119028781    1.30337800507306
H           0.45373136630183   -0.64826182475117    1.15449184933194
H          -0.58637908712465   -1.07431182473437   -0.16485839424715
H          -1.15462903562380   -0.16941582208491    1.17164965172152
