    26
        -50.44842302  Gyration_radius:  2.48740418675 Dipole_moment: 3.794
 S           1.11371550849372   -0.78220405760097   -1.41325365391061
O           1.15920693821380   -0.98122005471780    0.02723025231102
O           0.96290961446217   -1.98744225864130   -2.17675158724466
O           0.13927644471638    0.26002872942015   -1.75801551899967
O           2.52690849362896   -0.17286905886697   -1.82112832693729
H           2.95310604659610   -0.91311822759451   -2.24000782916455
O           1.61050415132175    2.78956389512546    0.97991825926672
H           1.57379165709365    3.50879461703544    1.61252803241403
O          -1.47692202290248    0.63087658402427    1.81274195437126
H          -2.39613628619288    0.78263287526223    2.03586498527924
O           1.40102208449565    0.51417503172101    2.21958180419483
H           0.47658940142562    0.46993481406333    2.49184726990358
H           1.47062999362628   -0.10391017438232    1.46459117861189
H           1.70415483721161    1.94458346210002    1.50427912902676
O          -1.22721699474698   -1.74058683962150    0.93083753530789
H          -1.65645229586492   -1.84879993566631    0.04596981104802
H          -0.27867425176222   -1.67606757193885    0.70983805400934
H          -1.41757173069622   -0.34072787142605    1.49726035358470
O          -0.52354046146071    1.97507971316180   -0.13610097702955
H          -0.22019797533390    1.23895719144881   -0.86910979252653
H          -0.94007308568097    1.44813826889366    0.64183658041950
H           0.34205471095526    2.38943456782385    0.22925649791906
N          -1.86651466924766   -1.85954527394094   -1.66842325265295
H          -0.90395305927113   -2.07294491541852   -1.92652053512953
H          -2.06010905144315   -0.94440082792318   -2.05772033618751
H          -2.46650800763306   -2.52836268232748   -2.13654989788610
