    26
        -50.44842477  Gyration_radius:  2.48742664931 Dipole_moment: 3.797
 S           0.74026349011215   -1.19714929560012   -1.36619705696831
O           0.92403702090429   -1.20070650182018    0.07680453312694
O           0.24936309666041   -2.43140745641596   -1.90843970472150
O          -0.03417283110893   -0.02160396292216   -1.78283983303720
O           2.18623138299553   -0.98080218575605   -1.99650430602255
H           2.38430305322655   -1.84251384974065   -2.34797192663974
O           2.26300887656607    2.46646437614742    0.36026600044898
H           2.45634563712889    3.25575172202171    0.86866259384375
O          -1.07262269756190    1.18777181399169    1.81805070949239
H          -1.90464980852151    1.57043626143521    2.09929394084605
O           1.74725202731844    0.48851075652402    1.96651404062850
H           0.87557140883302    0.68992592475294    2.32748094638128
H           1.59165874585868   -0.22730153857390    1.31822385284055
H           2.24598644577403    1.70244688084489    1.00335538649310
O          -1.43270919038275   -1.27811812087185    1.31336257326950
H          -1.98344573743519   -1.40842245428078    0.50183053740439
H          -0.52715053468906   -1.45794829044551    0.99677019966270
H          -1.25576537661248    0.19346480005367    1.66054038717042
O          -0.11724369828490    2.00364492890841   -0.40380554861321
H           0.85439972211984    2.26037152554139   -0.19318734244086
H          -0.06802430992089    1.12468766568104   -1.03379397816569
H          -0.53141709206440    1.69504086651828    0.48464909687454
N          -2.40518957826387   -1.60829027339125   -1.16148594161642
H          -2.45410448892547   -0.73548629507394   -1.67369489922306
H          -3.18421710858601   -2.18476167467266   -1.45702183586074
H          -1.54770846515095   -2.06400566288759   -1.47086242518993
