    26
        -50.44842290  Gyration_radius:  2.48740811946 Dipole_moment: 3.792
 S           0.32381047046115    1.83650168981170   -0.61015896219692
O          -0.28390968508034    3.07914550857806   -0.22969378321555
O           0.92802481798447    1.09826225518618    0.48835875442999
O          -0.55929590797679    0.96322239131591   -1.39245806781129
O           1.51324555963390    2.20955152369262   -1.60053694251419
H           1.63006713838040    3.13927879642482   -1.43522651558776
O          -0.50817901287228   -2.11819625887760    1.05795149883396
H          -1.22674274592511   -2.71069148210118    1.28241972976883
O           2.22297876335925   -1.90867892285169   -1.65835183943166
H           2.54372358436234   -2.80816192328586   -1.74117781867782
O          -0.26783288747883   -1.47121223915062   -1.39909248980156
H          -0.39078120324884   -0.39644786164598   -1.42473260861746
H           0.71786119493830   -1.65247185302705   -1.62293185878172
H          -0.39513378875030   -1.74967876915404   -0.41793482149093
O          -0.95681799199829    0.15114531107603    2.11274460643744
H          -0.18239099258025    0.60518488135590    1.72953612763570
H          -1.72072767964981    0.60950093633197    1.68229454779009
H          -0.71145937990358   -1.23311135236428    1.52962396056184
O           2.24116070057253   -1.19347987742496    0.84079892150274
H           2.41057929805372   -1.61741196593256   -0.72151063121866
H           1.91340686176903   -0.27509710716320    0.76274863931447
H           1.51204464502338   -1.68397661184196    1.23890700098312
N          -2.61341768813306    1.59850067814338    0.58315287828214
H          -1.87809348479586    2.27144805521860    0.37068563543455
H          -3.43455417025996    2.11922325693189    0.86794453537545
H          -2.82756641589021    1.13765093075149   -0.29336048701063
