    26
        -50.44849466  Gyration_radius:  2.48551914286 Dipole_moment: 4.241
 S           0.28357982209419   -1.50082422377252   -1.24147687277716
O           0.71305308292264   -1.30233051899179    0.12837372651342
O          -0.48499180345051   -2.68626592050611   -1.48865471535084
O          -0.37494879111225   -0.28644333338269   -1.75782330856999
O           1.62028845152373   -1.64822119296880   -2.09165539969284
H           1.37095034074047   -2.27934169930051   -2.75871787077551
O           2.58566049180916    2.07388404615895   -0.50999893619183
H           2.98518137532569    2.88580676830110   -0.19385584631346
O          -0.47997626921669    1.56258281532602    1.77914597060113
H          -1.15923351562602    2.12760410412406    2.14950775712643
O           2.18565110220542    0.45853118957073    1.48960665554099
H           2.61462912851314    1.42232835255218    0.24606743768981
H           1.44555391853983    0.85420267760402    1.96599850936276
H           1.80011784155134   -0.30744038867598    1.02067742991918
O          -1.30248086946017   -0.84727817464109    1.82244185629083
H          -2.01194768635434   -0.97899574626216    1.14600294281445
H          -0.51601897211376   -1.22626443176034    1.38949409064704
H          -0.83470005243879    0.60738453649092    1.85042444474649
O           0.05472578975970    1.87868157763554   -0.70314947848998
H          -0.13421307508863    0.91765878282984   -1.18885803741721
H          -0.18912670785450    1.76293809004794    0.28546071062718
H           1.07054982965759    2.01316412464581   -0.73159643743189
N          -2.75564357655379   -1.29890350731959   -0.38523474148015
H          -2.05808264985491   -1.93880630733215   -0.76269105556901
H          -2.77170587154247   -0.50549577201459   -1.01519129338020
H          -3.65687134398833   -1.75815582834724   -0.44429753844606
