    26
        -50.44842517  Gyration_radius:  2.48747099098 Dipole_moment: 3.797
 S           1.23184264776034   -1.50544933827074   -0.25870387990738
O           2.47383625889954   -1.83023983011385    0.38189186123045
O           0.10168626343536   -1.36708884182908    0.64662035554807
O           1.31720870364858   -0.34566402662778   -1.15478532550432
O           0.88971511892676   -2.73547478976993   -1.20985966895313
H           1.48160129046837   -3.40845258457456   -0.89031777283869
O          -1.39527725377566    1.86911034138501    0.65275456861208
H          -1.39225736235464    2.81701934739665    0.79155010715111
O          -2.57058264428822   -0.56649775807600   -2.09775536943759
H          -3.42392487876981   -0.22342541335679   -2.36781621821079
O           0.37113992774916    0.81541633140494    2.14776960741954
H          -0.69844371280708    1.48535733742777    1.29617384007786
H           0.25747319168056   -0.09791889682804    1.82296886664813
H           1.28577851109352    1.04658077508508    1.84984219441366
O          -2.50114773018605   -0.81727514298746    0.48888930880262
H          -1.60085477172038   -1.18183395199548    0.60493700185722
H          -2.44665372634717    0.08769435899066    0.81863747289767
H          -2.64709276766896   -0.81116263545167   -1.13244860020363
O          -0.64944679586292    1.03485703943420   -1.64139945982220
H          -0.94060006291192    1.40408667326605   -0.72764629173350
H           0.22049985870816    0.41843949094527   -1.45405130698498
H          -1.39437024712394    0.39524529035783   -1.94220417424983
N           2.78911073874359    0.96218543081856    1.00211229981960
H           2.83103415871389   -0.04991192470630    0.89000560992947
H           3.66254558774979    1.26208196170776    1.41892504678151
H           2.74717967623574    1.34232075637494    0.06390989666739
