    26
        -50.44842441  Gyration_radius:  2.48746944017 Dipole_moment: 3.797
 S           1.32857692751969    1.05470653317521    0.98504676565581
O           1.19075470992146   -0.38781122839660    0.85718007542295
O           2.60861348996498    1.56904578901983    0.59093779353731
O           0.19720006770372    1.73781847726235    0.34595349355291
O           1.18009180830299    1.37821863261152    2.53682899387668
H           2.07365898029073    1.59077014941718    2.78521735866341
O          -2.48297873945076   -0.59951792427540    2.19331982678272
H          -3.31786616144349   -1.05984739144290    2.29257453124133
O          -1.36505237246589   -1.42365470146260   -1.40606682830704
H          -1.77628562617336   -1.48197063708219   -2.26936839447969
O          -1.95474951788353    0.60921957128323    0.02007885020851
H          -1.73672061579152   -0.19518776808232   -0.58129118797844
H          -2.22782556092662    0.22074661838232    0.93058392529325
H          -1.01788646955608    1.12676220532133    0.18101112664985
O           1.13724803923507   -1.09093265932583   -1.71031308169579
H           1.35059584169383   -0.99477417863162   -0.76276363054436
H          -0.36068298820219   -1.32593402957096   -1.57561580645273
H           1.34533551578205   -0.19644369888764   -2.07838000598068
O          -0.67413247331477   -2.23910557255724    1.29989397187318
H          -0.91301485162666   -2.38427485863996    0.37656651300649
H           0.10158636012973   -1.64397876604202    1.26833616169451
H          -1.78591040370196   -1.29387405848533    2.02143639897118
N           1.70754787087198    1.49147316770633   -2.14101651624914
H           2.19405408026756    1.56467735116180   -1.24847821000536
H           0.88953912601223    2.08361130511702   -2.05890072675334
H           2.30830294216461    1.89025766219676   -2.85277139820892
