    26
        -50.44842435  Gyration_radius:  2.48748344852 Dipole_moment: 3.797
 S           0.91756909077535   -1.54578908635427   -0.78613592967882
O           0.60036468667571   -1.25602798319453    0.60370008278998
O           0.41364214548967   -2.80125002137013   -1.26377147185350
O           0.56617374804664   -0.40606174849616   -1.64198949828941
O           2.50449839730971   -1.64598491271942   -0.86678272760230
H           2.64276708311429   -2.58156320006743   -0.97114800360992
O           2.43092694330734    2.20059088312401    0.76308800989055
H           2.58646980561753    3.05327301980528    1.17243373809270
O          -1.37810181252814    1.67441188979554    1.07901823926876
H          -2.16834337514140    2.20464814497939    0.96881570956112
O           1.04175417789794    0.69529304471145    2.36399259669635
H           2.05496825321174    1.60258921399537    1.46919784242058
H           0.15404319676827    1.07232134168062    2.34224110177903
H           0.98142538932119   -0.12108133791383    1.82846300553185
O          -2.00468234064095   -0.78183463406090    0.88241637478114
H          -1.68132785557101    0.69842719386165    1.02771154086598
H          -2.26407115193879   -1.01993926270434   -0.04219536035776
H          -1.09658801316947   -1.13233065219762    0.95424918036426
O           0.40543391637582    1.86667677872981   -0.73652173773418
H           0.49790671906969    0.87218200316056   -1.15325580383940
H          -0.33421728523327    1.81072238611894   -0.02520816313203
H           1.27919473940010    2.04670835522720   -0.22789683801611
N          -2.13079618637599   -1.52600977189581   -1.68848552268075
H          -2.85854722815137   -2.05696283186729   -2.15215146426254
H          -1.32149352313926   -2.13645904382983   -1.58319982825513
H          -1.83896951049760   -0.78654975851804   -2.31658506273095
