    26
        -50.44842638  Gyration_radius:  2.48747823051 Dipole_moment: 3.801
 S           0.89051704325622   -0.33663287070668    1.71562090664893
O           0.37511436438722   -0.39021331289382    3.05345527863048
O           0.26515923749480   -1.26568872788951    0.78749648543202
O           0.91502641488474    1.01749570946579    1.14852907021316
O           2.41945910669258   -0.76971899807189    1.81333279256629
H           2.46761507790790   -1.14365942242571    2.68692080448804
O          -1.39066962498175    0.28233262699932   -1.96315864296522
H          -2.05436456655941    0.84921357693407   -2.35805830915355
O           2.40726427676719   -0.28253403167728   -2.33521686394934
H           2.55750653014539   -0.26343144383369   -3.28172763003415
O          -2.24718333205941   -0.54017810853136    0.28547768511301
H          -1.78984853499996   -0.05179568555456   -1.08245739830664
H          -1.43780453743113   -1.02286182589694    0.53942532683548
H          -2.28851278596829    0.19190744615869    0.94959474587077
O           0.48055296226803   -1.93833610842822   -1.78243002256420
H          -0.31835831810999   -1.48988813044138   -2.08459724470596
H           1.79271565449172   -1.04845282075661   -2.15305494543266
H           0.45880762311891   -1.86109685507338   -0.80759498197787
O           0.80674071525988    1.38302910277631   -1.27311578756220
H          -0.09082549165168    0.97238268892963   -1.55877301731884
H           0.88006820493823    1.23356199680202   -0.20322482936650
H           1.53682149212783    0.79700028434775   -1.69492921765758
N          -1.79930385070272    1.28775408208293    2.19314294301111
H          -1.12605901913936    0.68121311098727    2.65951017022174
H          -2.44356255841071    1.63022919017272    2.89610834063629
H          -1.26687608373008    2.07836853652668    1.84972434132642
