    26
        -50.44772989  Gyration_radius:  2.51301663701 Dipole_moment: 2.775
 S           0.59587380090510   -0.95217497519252   -1.78988357943565
O           0.09144617972447    0.12516258307115   -2.60769569989659
O           1.98057477339991   -0.70232524252221   -1.35296495492627
O          -0.26377563509017   -1.30337119305731   -0.68217749927395
O           0.68530602664308   -2.23002364096836   -2.71680233917056
H           1.19267436308626   -1.88590427191880   -3.44406031161590
O           0.09429496507228    1.92885058526395    0.97288578745832
H           0.16410162020025    2.86455891001832    1.16833204836414
O           2.06998596179133   -0.87217682647403    2.56547060480798
H           2.19281731088235   -0.55405265540105    3.46116015416118
O           2.32099826923844    0.73155812492258    0.60031385042804
H           1.44441611587238    1.25124489700825    0.71253375537858
H           2.35462051748412    0.07317883625942    1.38646611703649
H           2.20304175345428    0.10886569245562   -0.28716617863505
O          -0.44729721116975   -0.67148137347679    1.91788924875686
H           1.08583383435719   -0.94994621056053    2.41710069404356
H          -0.52078894341924    0.28335874161736    1.78177366850739
H          -0.43776423513142   -1.04780049796634    1.01680912666084
O          -1.34209154232906    1.76454217045562   -1.09742491794899
H          -0.49144243856070    1.86865802140763    0.12558642490490
H          -0.81882060992382    1.25986498123438   -1.75538819210475
H          -2.07800339107714    1.15349074694387   -0.85462647274715
N          -2.96752614654969   -0.29355027804760   -0.42552738038726
H          -2.13734408448516   -0.86474332884835   -0.57774595027954
H          -3.68768641060017   -0.62183520210108   -1.05605049628947
H          -3.28344485378133   -0.46394859413990    0.52119249220098
