    26
        -50.44849473  Gyration_radius:  2.4859620692 Dipole_moment: 4.246
 S           1.27163932294982   -0.37582315814254    1.45580843263169
O           1.42707712296109   -1.52277743133502    2.30289922517176
O           1.35515489463642   -0.62825808115383    0.03113676533075
O           0.05573299486120    0.39589350088987    1.77342637200006
O           2.48638232498407    0.59546010310827    1.79057619304200
H           2.74262118890322    0.31010169371471    2.66146990859803
O          -1.51018044956409    0.07236748530271   -1.88416781169516
H          -2.42417686586553   -0.04158739949056   -2.14765932633657
O           0.77396066200184    3.07795757403370   -1.08649795025208
H           0.55087512136071    3.72892719452312   -1.75376285180372
O          -1.05579666932621    1.70606236501277    0.03182216750116
H          -0.34632528181413    2.34564460831341   -0.34008622826450
H          -1.26769781964899    1.04664422462981   -0.72359041891584
H          -0.55952648200000    1.13336370224598    0.81953983019276
O          -0.66065062988594   -2.11594584286312   -0.89743521141043
H          -1.20074455980301   -0.83485719863449   -1.53102958030635
H           0.22806608196077   -1.78430972541388   -0.67415547392243
H          -1.06812147801291   -2.27213722258462   -0.00970664549107
O           1.27709283513797    0.79414351167070   -2.22599512471979
H           0.41022327476508    0.47773878221488   -2.50831925539613
H           1.12942181071142    2.27860548851132   -1.56797071164968
H           1.49789207811469    0.25247578001737   -1.44303002995778
N          -1.30786118099508   -2.19635487545023    1.70302125570592
H          -1.71811715769392   -2.97298764946572    2.20813607348406
H          -1.75471970207375   -1.34677893446944    2.02721202165352
H          -0.33222142665548   -2.12356849519681    1.98835837483045
