    26
        -50.44842431  Gyration_radius:  2.48745274356 Dipole_moment: 3.796
 S          -1.13471833786392   -1.33570467759552    0.88168106177955
O          -1.16131123606753   -0.84610554523274   -0.48793290872386
O          -0.99857322923568   -2.75866396169199    1.00401737748736
O          -0.16081030885671   -0.58007782225024    1.67889642326987
O          -2.55122081858190   -0.97068835110928    1.51025977889384
H          -2.97930263156880   -1.81952403218580    1.55027457065919
O          -1.58680716962795    2.94149742664931    0.40481032925024
H          -1.53930516468939    3.87123237485373    0.17644687966288
O           1.50175360933433    1.38322935895240   -1.30291465120334
H           2.42420311689830    1.61260861689744   -1.42226983970061
O           1.23229117526840   -1.12503841332850   -1.61999062120160
H           0.28137289419662   -1.16096183808522   -1.40290399222141
H           1.43482753253664    0.37645324979784   -1.47308761535926
H           1.64990445696394   -1.63374618658866   -0.88128212463793
O          -1.37166615123593    1.49459520377008   -1.74425687868979
H          -1.67763240936432    2.43534661961009   -0.45144828438411
H          -0.44401417618450    1.57260388565059   -1.99733750561910
H          -1.45319129039326    0.59834394077668   -1.36088788997251
O           0.52964817280173    1.68336531738638    1.03788539290583
H           0.95363356047227    1.57147601126888    0.10841609252760
H          -0.32953484644320    2.22788456398664    0.89725099687793
H           0.21395997652160    0.69479924169249    1.34537357707830
N           1.83736173304022   -2.43704948235830    0.63654466811692
H           2.42816160553922   -3.25254150331855    0.74804490566789
H           0.87065082020921   -2.73604269516217    0.75802546151593
H           2.03031910633710   -1.80729131238203    1.40638481601901
