    26
        -50.44991601  Gyration_radius:  2.48959333141 Dipole_moment: 0.424
 S           0.07415142932806   -1.81698736190542   -0.80998938745165
O           1.48574279696161   -1.53735418067383   -0.93669639371541
O          -0.27579643897123   -2.17966793844168    0.57235055828197
O          -0.79061493636001   -0.77632641083202   -1.31725732619221
O          -0.21014796222474   -3.10913517796838   -1.67433619137766
H           0.55104240003832   -3.63381858479731   -1.45167022653997
O           0.95772551088425    1.52178329956143    1.30047826469727
H           1.51550196758420    2.11567129025686    1.80498369001584
O          -2.09630113264030   -0.31041278034850    2.67166589726900
H          -2.50471058980774   -1.14078983410978    2.41589304456562
O           2.12296150051700    1.04068300369285   -0.88533689399242
H           1.45676607917793    1.34695920173877    0.41414650798204
H           2.03805966238879    0.06658378208061   -0.94607299087838
H           1.51032544996292    1.38468812409446   -1.58079040334927
O           0.38087468926480   -0.69299289461125    2.41504762340004
H           0.22043892172392   -1.38106600837140    1.61528834320658
H           0.68602801170276    0.19300134941460    1.98723938349063
H          -0.60590828008134   -0.52557174629627    2.70650857642688
O          -1.68889689994509    1.00946130585462    0.45742608104389
H          -1.46814961754461    0.34966742465522   -0.23141321537005
H          -2.10990813805842    0.26406335117760    1.85477155414183
H          -0.86262047462223    1.47466833500950    0.64592706288518
N           0.14055077085210    1.62702924808580   -2.62183906892053
H           0.29675343017582    1.58227422084447   -3.62071895284067
H          -0.52041284421678    2.37369893015530   -2.44660489197040
H          -0.30345533608934    0.75389003173233   -2.33900064480744
