    26
        -50.45156311  Gyration_radius:  2.67243784437 Dipole_moment: 4.836
 S           0.65252386401826    0.59262488756659    0.33481906234108
O           0.65461138308124    1.32591752809736   -0.90784232243566
O           0.81290655762015    1.39949679911007    1.51228832635414
O          -0.64642507407027   -0.21731716183072    0.45727907578319
O           1.71677465803704   -0.49920309325168    0.29079260726882
O           0.66161566482170   -2.45145439922896   -2.99933804593139
H           0.29893061283921   -2.69415199101461   -2.10693814039296
H           1.13204421475466   -3.22030001129867   -3.32561858541631
O          -1.05993749604198    1.76270488982382    3.38618107833717
H          -0.89733681879597    1.16625118772392    4.11831325943724
H          -0.27881521087785    1.70129107604540    2.80100215611385
O          -0.96509829014105    3.24479309840709    0.03027044943602
H          -0.37408003002928    2.66996417758734   -0.48826153197580
H          -0.43045112218688    3.58110420130386    0.75419766572614
O           2.20153342203341   -0.48956713066829   -2.14984919650082
H           2.01025716649385   -0.58342526087296   -0.71236604340463
H           1.64263779422131   -1.19934503267927   -2.56536752056174
H           1.70031188553559    0.33551341558890   -2.22694009793912
O          -2.43509598139154    1.34779051790215    1.14100390765774
H          -2.12372733141410    2.15095054883033    0.65641198903097
H          -1.47978214127329    0.41363328287728    0.73046148506588
H          -2.17990099783437    1.50876372502790    2.07677393313197
N          -0.09659595171311   -2.96972426476889   -0.47423556621739
H          -0.83372050800790   -3.62460537725780   -0.24339156011058
H          -0.39971175379983   -2.04725316856908   -0.17245531773386
H           0.71653145417760   -3.20445245441863    0.08280892293881
