    26
        -50.44246357  Gyration_radius:  2.62800996145 Dipole_moment: 4.233
 S          -1.93910163048759   -1.67731059931118    0.62824433945356
O          -2.36793980354498   -0.71845575424289   -0.40857959102412
O          -1.44119433945125   -2.90104220486771    0.04748814304304
O          -1.06541397742067   -1.04807406682022    1.58578222030529
O          -3.26674812839370   -2.06590680124195    1.41365593236556
H          -3.68586599984457   -2.68865612624152    0.82716570425554
O           1.20625120693532    0.64180478029856    0.77864791562304
H           1.81236831617334    1.30647018761693    0.38016327348367
O           0.35174146425513    0.19199986474806   -2.62899896691821
H          -0.24571806010086   -0.17967508210814   -3.28033505559572
O          -0.84014090216603    1.18406026595131   -0.58604366531294
H          -0.42699809944306    0.95240841374746   -1.48551257089465
H          -1.57479659894556    0.39992377648569   -0.44962201168611
H          -0.06034210834408    0.96344155332630    0.07883806403418
O           0.74137716978117   -1.63935621707735   -0.81094789524665
H          -0.01333712203859   -2.20063631148916   -0.54439565338311
H           0.59829251474761   -0.56746207970533   -2.02740199700895
H           0.98966468906543   -1.13220630107267   -0.02572808424417
O           0.12687907976018    0.72069399262499    3.19601435289627
H          -0.46803581622011    0.12090691932430    2.70386496352871
H           0.48682442304763    0.19123664588001    3.90963462286589
H           1.01969753049841    0.83715550506436    1.72131716395570
N           2.44165893936229    2.22356670012993   -1.01275384713972
H           2.11189088128417    3.17525543422296   -1.11730361959233
H           2.06010105776459    1.67965077218463   -1.78010308415510
H           3.44888532373421    2.23020674255570   -1.11309067360238
