    26
        -50.44246375  Gyration_radius:  2.62767728954 Dipole_moment: 4.226
 S           2.03395927027985    0.82708937984043    1.46506248698262
O           2.27753585339477    1.04922819178577    0.02656093015999
O           1.46051141974390    1.99281076129264    2.09390086783614
O           1.32200127043483   -0.40626258715284    1.68505509430248
O           3.47613141948651    0.63939811007204    2.10946108343453
H           3.79732581535795    1.53380582243526    2.17385528632699
O          -1.06851647896810   -1.14781693717910    0.13288553694910
H          -1.74002386727205   -1.34062777990363   -0.55982339064811
O          -0.78270759031042    1.83105826427537   -1.75981557227574
H          -0.29712899167588    2.63546920657388   -1.95085353827241
O           0.71864790781428   -0.21239057208242   -1.37495569926990
H           0.06100502304066   -0.66982438607417   -0.69834083516634
H           0.16581858748163    0.57003203487166   -1.71495840717726
H           1.47486180034647    0.27171898465768   -0.76966220621427
O           0.40128897510320   -2.90521498577748    1.46156859308553
H           0.17599759492667   -3.16001264485767    2.35789625032268
H          -0.73046654975033   -1.96734958898259    0.55181932664869
H           0.90919310718069   -2.07431446227609    1.54916210011715
O          -0.84798221096581    1.57381828574693    0.83584594644387
H          -0.96782495544930    0.62345660242697    0.96926982238992
H          -0.05304446679150    1.82174092554681    1.34821328607165
H          -0.91852582465802    1.82922736108084   -0.76919782065553
N          -2.60231991265651   -0.93914710294491   -2.06725263005728
H          -3.61230944244204   -0.98067243026645   -2.01519196425446
H          -2.31296819138559   -1.43057707949074   -2.90389207112584
H          -2.34045958225495    0.03535662638417   -2.17661246595197
