    26
        -50.44246360  Gyration_radius:  2.62792578382 Dipole_moment: 4.234
 S           0.23423888053267    1.42298319743996    2.21120165160889
O          -0.25809222807400    2.70430123680557    1.76560431027714
O          -0.85254336049751    0.43025085565253    2.31846347252065
O           1.34617115573508    0.89449374700076    1.46247399730653
O           0.75214820691652    1.63899113907659    3.69972393689913
H           0.09041292587511    2.21348737144896    4.07324381300859
O           0.99865329986123   -0.49901212697401   -1.10866778582155
H           0.72820607651124   -1.08068342155866   -1.85461607803852
O          -2.51321725832007   -0.11897681475313   -0.85897660873402
H          -3.26973184936924    0.18459294490807   -0.35414193491772
O           3.17020101090111   -0.73709294958471    0.38865795329521
H           2.56833925604654   -0.20738499850934    0.94829846984513
H           1.89176987701493   -0.72654881023544   -0.77377572693921
H           3.93362078639765   -0.17728751776437    0.23722865530969
O          -0.71797451690457   -1.27075075675569    0.56522921967108
H           0.07829438904046   -0.96427682567721   -0.04376118125849
H          -0.73087782571922   -0.58331716007247    1.40188772623056
H          -1.52703169166808   -0.98069788841878    0.02222183776711
O          -0.67704426813155    1.72632013954316   -0.67541472731610
H          -0.56342484775952    2.18884401475119    0.17834546840129
H           0.14709565291309    1.24502037276193   -0.83209189962622
H          -1.88528957421246    0.65820649412607   -0.89416722824035
N          -0.51208980319257   -1.89913738715502   -2.83926655472357
H          -0.66484496257367   -2.88260017129684   -2.65277837866960
H          -0.42351171928390   -1.78245932252805   -3.84090815882958
H          -1.34347760203980   -1.39726536222897   -2.54401426902513
