    26
        -50.44246367  Gyration_radius:  2.62778926366 Dipole_moment: 4.231
 S           0.89632924301551   -2.47223042827711   -0.23165612233997
O          -0.53689122048866   -2.44643367744761    0.11934073147255
O           1.09303022440370   -2.55935228886398   -1.65872104602030
O           1.60956847984487   -1.40681201867358    0.42597253450053
O           1.45170719736610   -3.83300498695512    0.37700641934493
H           1.15545460350870   -4.48320001462773   -0.25300591709788
O          -2.24776038156410    0.38773496742526   -1.36423842350408
H          -2.75975236904298   -0.31475372421347   -1.76883565282749
O           0.62933233181543    1.37070128650802    0.45030617971207
H           0.10991088474623    2.20306117953751    0.52307427590004
O           0.25571319274009   -0.04952892158650   -1.95649794027138
H           0.73996678508190    0.39824570685434   -1.24912008240496
H           0.57882300164353   -0.97220024685272   -1.96503804023437
H          -1.31973396094084    0.28240884430819   -1.72107481797291
O          -1.24811465997795   -0.24368714288835    0.91164346702532
H          -0.92471077564944   -1.24541050069839    0.65768598969214
H          -0.40258825127173    0.36616137031523    0.80089544516905
H          -1.81095973088843    0.02268156156229    0.10802252169606
O           2.40038753768760    0.44174380840507    2.18649785658908
H           1.29547455160479    1.29248339254012    1.16559463933059
H           2.13443285829537   -0.35607995352595    1.68765436217606
H           3.34111645564267    0.53740860263385    2.02840244456691
N          -1.37057816145090    3.15991497707786    0.25767323069070
H          -1.23398693819300    4.06798382435768   -0.16825602214147
H          -1.98494485578497    3.27870655757853    1.05371882763779
H          -1.85122605214421    2.57345781551155   -0.41704485068156
