    26
        -50.44246360  Gyration_radius:  2.62797372406 Dipole_moment: 4.234
 S           2.51486283920718    0.02100060983920    0.80223089606304
O           1.61613989121568   -0.49628998147000    1.85245665609408
O           3.06613423257078   -1.04557333131157    0.00146745359064
O           1.88778904240252    1.08719883314202    0.06317528139918
O           3.73979401182467    0.67023202332123    1.58229635529257
H           4.25724990825046   -0.08873609483814    1.83449809690767
O          -1.18463041362149   -2.33511839153288    0.46321923305397
H          -0.80219108470798   -3.03721762745312    0.99249272607304
O          -0.85978407431370    0.88465364289216   -0.97536324909061
H          -1.82479179038337    0.75197861096063   -1.11370506944157
O           0.39662401954035    3.19153294965803   -0.63735452244648
H          -0.61829165289183    1.83505303610916   -0.97668499920287
H           1.01386909860167    2.54047234756669   -0.24868763201774
H           0.87811514778577    3.59674475016515   -1.36060907872180
O           0.69121006725996   -1.46413618224535   -1.12838673430329
H           1.60331270375773   -1.39831357868517   -0.78280511296424
H          -0.49830312745562   -2.11835699077467   -0.23066263686283
H           0.41537243509790   -0.55994817736718   -1.33278921805468
O          -0.73019599460998    0.01477691353785    1.38492806006049
H          -1.04041586218794   -0.92757325480138    1.16311732801364
H           0.30928346289410   -0.13077811565869    1.65205020200133
H          -0.72110991222553    0.47222307282954    0.44187118996014
N          -3.32833241537818   -0.18230466078118   -0.90518105705823
H          -2.95104347732895   -1.07553098794233   -0.60509879532876
H          -3.86371862970057   -0.34382067691238   -1.74892714633734
H          -3.96694841561474    0.13783127175981   -0.18754822668238
