    26
        -50.44246373  Gyration_radius:  2.62775637113 Dipole_moment: 4.228
 S           0.82075976248761   -2.45563435596579    0.51414654079738
O           0.56829041359205   -2.26010823172580   -0.92665230416800
O           2.20398927560495   -2.21585759978236    0.84939516940870
O          -0.14115148602138   -1.73654571806986    1.31042847703969
O           0.56199031451755   -4.00288063163572    0.77804431890945
H           1.36091310785436   -4.40900430761084    0.45536968640099
O           1.35710846667850    1.11783719410702   -1.99293505669844
H           1.96682659264157    0.64364542995567   -2.56103661006047
O          -0.84017075240728    1.07580696770994    0.78355995042214
H          -1.09610846331467    1.94399129112426    0.39789435701639
O          -2.38061940414024   -0.56511531534039    2.17948674168448
H          -1.55175542063057    0.70162259209773    1.34484350876944
H          -1.66974203839109   -1.14949755676979    1.84902214982461
H          -2.31914265182263   -0.60711533964330    3.13528013384220
O          -0.73040443762722   -0.23344690714812   -1.36498366100636
H          -0.84189756459209    0.22099953672932   -0.42659101659801
H           0.00910875668479    0.32283700263117   -1.78573894751581
H          -0.24206631388545   -1.18151039783059   -1.17753583260888
O           1.87742500229063    0.39755774638244    0.46034005756109
H           2.11016117518677   -0.53640451318701    0.63167347740634
H           1.66686595309934    0.93899449874097   -1.05919504629717
H           1.04590832802599    0.55716847333784    0.92772730299644
N          -0.99438098912571    3.19058129339486   -0.87192861878637
H          -1.75146200313800    3.22066310342082   -1.54362774765290
H          -0.15941499168989    2.88721447767244   -1.36281999988133
H          -0.83103064188514    4.13420124740517   -0.54416704080604
