    26
        -50.44246360  Gyration_radius:  2.62786342945 Dipole_moment: 4.233
 S           1.29457068801953   -0.58769477423656   -2.22444229548389
O           1.48400999662216   -2.00929814168378   -2.06377665102733
O          -0.11799898086630   -0.25400458241196   -2.49151308410316
O           1.82817150389056    0.22987980283051   -1.16469096234487
O           2.07796023389151   -0.18196809418188   -3.54819900879391
H           1.88654246695113   -0.90536095976256   -4.13770990399873
O          -2.30020788241339   -1.31688609901197    0.20404862671593
H          -2.69320759364198   -1.82746316503567   -0.50602836334207
O           0.39698351336537    0.65671587874634    1.37404515236629
H          -0.25330238169775    0.84754985064876    2.08724773348679
O           2.32387101224852    2.25396747761041    0.50825085938804
H           2.18814871105354    1.63943934164943   -0.24006777749257
H           1.07710993394994    1.35950766509338    1.30274306743179
H           3.23241217047039    2.12086338497669    0.78382403041274
O           0.23292749162091   -1.93900904707595    0.28575479102918
H          -1.37278313208553   -1.67498711437860    0.30995073947448
H           0.70618074286301   -2.08127965408316   -0.55776516811700
H           0.64482642814471   -1.16722500017180    0.69815893884414
O          -1.17713603881899    0.85051053847506   -0.58265718482255
H          -1.78781330608514    0.08930670315423   -0.29774090751361
H          -0.44731979286655    0.84172228216946    0.16986131369518
H          -0.69402139109633    0.45338225473644   -1.46666433563853
N          -1.87675601234134    0.71204483041790    2.81092227848211
H          -1.90054458511262    0.43001338112120    3.78279688705392
H          -2.26128813426154   -0.04922289638645    2.26059776327630
H          -2.49133566179742    1.50949613679218    2.70305348104522
