    26
        -50.44246348  Gyration_radius:  2.62800899276 Dipole_moment: 4.233
 S           2.32670679962290   -0.60245814816346   -1.09197660885958
O           2.61223665279952    0.61193379080648   -1.81755854933625
O           2.44692416482089   -0.40603181428370    0.36581265114944
O           1.08035922530407   -1.24328646491382   -1.42687692915838
O           3.48043674621395   -1.62944724892858   -1.47259625986660
H           4.25872350374149   -1.08032031610231   -1.48316212156887
O           0.15602403874675    2.12292503518919    1.59413780185131
H           0.97908638787135    2.53300052277965    1.86568879096945
O          -1.49875363752552   -0.36002327867432   -0.31393558936368
H          -2.25118651716103   -0.07603021948319    0.25273438964899
O           0.32590725249317    1.68536327120324   -0.97314876626335
H          -0.29304578649952    0.95731467308628   -1.12230042331984
H           0.18582627814955    2.09789051286176    0.59519557028260
H           1.18286428346408    1.39320198044093   -1.34176984813438
O           0.26864152523005   -0.43687973887790    1.47901975021952
H           0.21559127972024    0.55008569043144    1.71662993540389
H          -0.42829502658373   -0.51441208192652    0.69982991476592
H           1.24265458015589   -0.51995760176783    1.01265871643480
O          -1.12038791587303   -2.75847293162958   -1.37166941752977
H          -0.22299903305333   -2.37039414139302   -1.36807021089981
H          -1.63016674065323   -1.26488451118208   -0.66825272389592
H          -1.32126568680955   -2.92354791612480   -2.29445257745160
N          -2.93698024057012    0.88225681372633    1.59016463989889
H          -2.19100514171154    1.55462323253787    1.73748745398922
H          -3.08974386867637    0.39659548906522    2.46548137201143
H          -3.77815312322114    1.40095541131327    1.37092902901810
