    26
        -50.44721209  Gyration_radius:  2.51047994764 Dipole_moment: 3.932
 S           0.33100724367559   -1.87230072262811   -0.95068743618010
O           1.57144403607191   -1.86141452262270   -0.15378405891850
O          -0.81007433789868   -1.53153744187029   -0.11460889307452
O           0.42368326016445   -1.08851185804759   -2.14872706925999
O           0.14704848821777   -3.38323144039593   -1.37149532567738
H           0.24394191436499   -3.81667725301723   -0.53029566209054
O           0.69802024450233    2.05701721194339   -0.04847969188153
H           1.06639643640004    2.92342827569597   -0.22784371145507
O           1.53952673850849    0.12583969447262    3.02745081828925
H           1.61917990050639    0.86225784865934    3.63567241043464
O           2.41578077855798    0.29380572326239    0.64029658083845
H           2.21216079380944    0.20691478286913    1.64186762366042
H           2.09054132273927   -0.66478939455068    0.23559297418694
H           1.76168825313475    1.00370433578185    0.29376426791195
O          -0.71301433829550    0.38249280073093    1.74012764038697
H          -0.48844837800836    1.12887501750194    1.16805112301303
H          -0.81040449045624   -0.38293614327870    1.13628201987387
H           0.60296411953557    0.13711979891644    2.68275655332651
O          -0.57391141746833    1.37239827521544   -2.11739389493387
H          -0.17404927696728    0.50104726393386   -2.31424471745185
H          -1.48371431352722    1.15023398290120   -1.79981718000556
H           0.18325550683504    1.79524336575889   -0.90468300162965
N          -2.81145362351654    0.35522372926099   -1.01140353946228
H          -2.24677881347100   -0.43825450338457   -0.70829611039390
H          -3.54307716862998   -0.00138033188871   -1.61280228321996
H          -3.25171288295390    0.74543151425496   -0.18729945912111
