    26
        -50.44540666  Gyration_radius:  2.75901085256 Dipole_moment: 1.146
 S           1.96389369861346   -2.15309810049981   -0.87513850323537
O           2.98929765509786   -1.02850899974016   -0.85293181900372
O           1.58193769891450   -2.50956089908262    0.46257653750940
O           0.89742015758519   -1.86987672871943   -1.78061120043385
O           2.80462972757648   -3.33883007502649   -1.46955754728714
H           3.39037176856233   -3.60697706017382   -0.76575243331951
O           0.06799680291505    2.20278077172339   -0.84022885424726
H           0.10691700701503    3.09410664237127   -1.18728021940830
O          -0.00095110796902   -0.54275638939368    1.43996220979299
H           0.46377599173571   -1.39080966259160    1.35653196814631
O           1.99359613785435    0.83510559427495    0.42100367034078
H           1.31088796961371    0.36891146487784    0.97405950365468
H           2.60772689842231   -0.18383001332896   -0.30531005329187
H           1.46385946511782    1.40639094487572   -0.17822586921521
O          -1.15429209802124   -0.31463381134986   -0.99421334803853
H          -0.79533530104589    0.56053029990847   -1.20821093498244
H          -0.55155756947918   -0.95441297675358   -1.41109387331710
H          -0.57951501784577   -0.49592842680369    0.64587853595439
O          -1.17319094154204    2.11274368561769    1.45809599826044
H          -0.41653798388797    2.25995273270255    0.03553989110945
H          -2.05421615452301    1.74235269101549    1.20701604742413
H          -0.72073809003343    1.38685174962532    1.90252005637064
N          -3.38503058226089    0.78727195802454    0.61161042467732
H          -3.78671019718590    0.15536159844949    1.29261617498689
H          -2.87910530101224    0.22685715868761   -0.06888417161957
H          -4.14513064430625    1.25000584109968    0.13002782896545
