    26
        -50.46489353  Gyration_radius:  2.55382755366 Dipole_moment: 4.634
 S          -0.72715378702728   -0.33712926172971   -0.20326683983891
O          -1.24909022620384    0.08366993618433   -1.48787517962267
O           0.58481654095033   -0.97103961371639   -0.33654007399755
O          -0.63292958038710    0.83261664564754    0.69985283906739
O          -1.70735420911807   -1.33495259576827    0.41394418255883
O           1.68434169070726   -1.82374100254387    1.90335126439080
H           2.12064597784321   -2.64932398168274    1.68640066508084
H           1.35369519015797   -1.45874749711147    1.05313932896984
O           0.15412998663062   -0.00208580477018   -3.71936103188501
H           0.04254908905386   -0.85290748344404   -4.14543899899899
H          -0.45180999910975   -0.00938619136436   -2.94362822085596
O          -1.36579291632419    0.71636375197342    3.26731079793286
H          -1.04004681013048    0.85724237784413    2.35505812403870
H          -2.30370912053087    0.91430434234025    3.25020385456551
O           2.00596562567448    0.59850167181512   -1.89714328916468
H           1.65630645771407   -0.07706847089664   -1.27088322257608
H           1.58681648636711    0.36155736947417   -2.75179595520607
H           1.12526499683215    1.72814303452825   -1.48540752050544
O          -0.85618932623536   -1.86581026565564    2.72518487680031
H           0.11730662295255   -1.91634043474104    2.59686425462054
H          -1.01832455310093   -1.00301813133789    3.16219249659014
H          -1.37963817673877   -1.60681266808707    1.35934973547268
N           0.28620176104764    2.35589213217140   -1.14685754791605
H          -0.10240446552349    1.83755566965969   -0.28371370280743
H          -0.44142624035918    2.31013528069954   -1.85871443526149
H           0.55782896485351    3.31238120050661   -0.94222639145023
