    26
        -50.44721205  Gyration_radius:  2.51045938253 Dipole_moment: 3.933
 S           1.91620956780445   -0.84424485744338    0.36547280277910
O           1.28507853385646   -2.06925859585469   -0.15866924788338
O           1.63495131369550    0.28365585757531   -0.50970814270376
O           1.60704869402059   -0.59653269612613    1.74433228223583
O           3.46675270244490   -1.12362221333992    0.25754107283532
H           3.53398549494577   -1.41399696328233   -0.64578288306649
O          -2.01766227655040    0.00253131019286    0.80502087794331
H          -2.83308531516687   -0.05519048178220    1.30530773302527
O          -1.59565215799583   -1.62926348625924   -2.52038810124130
H          -2.48944416237010   -1.51220422667170   -2.84603682340562
O          -0.75260000433878    0.67268100744602   -1.63293133275965
H          -1.28325436555229    0.73996797053324   -0.82751837434206
H           0.17036725716921    0.56278137888316   -1.32299541563325
H          -1.22616864356628   -0.71626360011747   -2.35914405525826
O          -0.33060170095507    1.13092685910003    2.30421637127489
H           0.00955517914556    1.89700508812985    1.77951430121699
H          -1.34204306479722    0.46550398856949    1.43410009050565
H           0.40739583295370    0.48824440167207    2.28770693462965
O          -1.15539294308276   -2.23351424109616   -0.08411157717295
H          -1.37082205328473   -2.14019617966356   -1.08263102420194
H          -0.06586592913519   -2.20430631827983   -0.06033507482596
H          -1.48878843050824   -1.36376216946056    0.34510108205786
N           0.81377412792689    2.84142227432248    0.56374670755796
H           0.29893232213059    3.32448007498993   -0.16208562181894
H           1.26144438879781    2.03253053858198    0.13289757043393
H           1.54588565355904    3.46062525901903    0.88737985819029
