    26
        -50.45479432  Gyration_radius:  2.47117464163 Dipole_moment: 5.902
 S           0.29403564197971    1.84605497683282   -0.97054428376076
O           1.06803497956719    0.65096455182847   -0.68608899398257
O          -0.97143470753972    1.81792961124940   -0.08084170266313
O           0.97888517529684    3.07460505987780   -0.76765889303580
O          -0.25073418130436    1.75425764777557   -2.39628498200799
H          -0.82191176589391    0.87366866405898   -2.43753395684473
O          -0.70765804541558   -2.45516902230447   -0.55161916767967
H          -0.88774343041093   -3.37743234525556   -0.36457077785022
O           0.75554703884637   -0.35794924095748    2.70041564665108
H           0.79290966515732   -0.33223913858528    3.65747971417068
O           1.94668829385693    1.75775915271778    1.59032365754134
H           1.19993870573481    0.46055802041413    2.38167251939811
H           1.85925267709041    1.36279732525389    0.70596643754366
H           1.73585481938715    2.68532518275823    1.45483393316287
O           1.62500997905588   -1.76018935386480    0.39564308096067
H           0.23239367921399   -2.28857643994598   -0.26226065676325
H           1.64864954051976   -0.93296723408164   -0.11291974867141
H           1.46653424821634   -1.47905179952486    1.30899169805705
O          -1.43317806359340   -0.39338010161568    1.07609087478523
H          -1.25782430171570   -1.14730358338262    0.47861985266792
H          -0.72049986978536   -0.41329827281543    1.74434484903535
H          -1.16672132067923    0.91567727836184    0.36210908622499
N          -1.68753923583609   -0.35496524294548   -2.33335370738117
H          -1.20805642908779   -1.11524510859338   -1.85486676012556
H          -1.98199593183722   -0.68089307985799   -3.24460972476346
H          -2.50843717082790   -0.11093751739673   -1.79333799468219
