    26
        -50.45116904  Gyration_radius:  2.66146004243 Dipole_moment: 3.376
 S           0.09049161934240   -0.94345415269514    0.56531872736726
O           0.35555431308624   -0.30016682928684   -0.80438274999842
O          -1.01469608173348   -0.26349601807916    1.20157756755069
O          -0.08727863928993   -2.35647469102066    0.39865393072125
O           1.38050078450687   -0.65563511753736    1.32378157112792
O          -1.65934153255828   -3.32406746960453   -1.50743666889527
H          -1.12053907801873   -3.08048552038701   -0.72582351822697
H          -1.20507516633489   -4.05719966820331   -1.92587933305313
O          -3.25394601484962   -0.25402349482932   -0.25847099762786
H          -2.51146344265294   -0.16720705621886    0.37148323236118
H          -3.72256314051135   -1.05411075097971   -0.01141260096215
O           1.43760318627553    3.30992880284857    1.02881889560804
H           1.89770747334138    2.72719086354259    0.36881989357130
H           2.10844948269170    3.87732240490052    1.41209392623812
O          -1.59671150430878   -0.77385383392177   -2.25098363547579
H          -1.66830024184791   -1.75451029002797   -2.18675104264626
H          -2.33041287386156   -0.43627437082038   -1.68176636192313
H          -0.46390220758492   -0.47115982198266   -1.48091126656863
O           0.62680406602196    1.35082905190976    2.59286068071357
H           0.87266355028044    2.15175222391109    2.05765172555277
H          -0.28695229345932    1.13128210623713    2.36084026228015
H           1.18027144241542    0.18637493525754    1.90764632268473
N           2.66605435245801    1.52004264690446   -0.55329925799562
H           1.87302284602526    0.92451504312316   -0.77771406900554
H           3.30352755841596    0.95776819257799   -0.00178941524629
H           3.12853154216716    1.75511278438461   -1.42292581815862
