    26
        -50.45620277  Gyration_radius:  2.42259291176 Dipole_moment: 7.326
 S          -0.65284070197667    0.63726480263687   -2.01536226494474
O          -0.28071588735647   -0.76580245709754   -1.97456076528671
O           0.44901952280784    1.46625478505391   -1.43293738671989
O          -1.11702102878493    1.13939707189570   -3.26030261708028
O          -1.82865803794078    0.82685810354809   -0.94927900546585
H          -1.83636890889951    0.06952557140205   -0.32448926437506
O           1.92793046268100   -1.12411469838797    1.09567574549089
H           2.76258387501160   -1.36482321984775    1.49865245309558
O          -1.95339926413790   -1.05234694799898    0.94076855650354
H          -2.81299097819995   -1.47452306640840    0.95421818961049
O          -0.02327103484850    0.33220408604593    2.28694902109976
H           0.74335706756037   -0.16813860647259    1.93848175590504
H          -0.19669686916284    1.62506916291309    1.45270815179671
H          -0.80075867912022   -0.19266034111003    2.03054284378396
O          -0.14655014690955   -2.57361516119640   -0.05695622157596
H          -1.30020836470819   -1.74304692344677    0.59724675351656
H          -0.16904143789482   -2.05193924245090   -0.88872049791224
H           0.65179100206574   -2.27660716436761    0.40963990701867
O           2.36309275979045   -0.32258862932508   -1.34584371390297
H           1.91734755340223   -0.97377864456124   -1.89881202080535
H           1.77239813154046    0.45963849323742   -1.40799060013677
H           2.14591825735219   -0.78178484225317    0.18059422120167
N          -0.36559355443486    2.41953824448526    0.74803468997980
H          -1.36543573445367    2.54484065871375    0.60903607782685
H           0.03706532440982    2.06149608022839   -0.22607900086454
H           0.07904668220682    3.28368288476324    1.03878500224014
