    26
        -50.45620276  Gyration_radius:  2.42261216013 Dipole_moment: 7.327
 S           1.41367462403938   -1.68894228856215    0.21051314758258
O           0.02991865962291   -2.08877951716787   -0.19686155269310
O           1.35152145715719   -0.87022190277525    1.40827057974596
O           2.31687270088639   -2.78494716362538    0.23165513024802
O           1.85817417595436   -0.71952727482665   -0.98018099174865
H           1.70721368372381    0.21559798242540   -0.72172566094487
O          -1.95503271180571    0.98679612665437    1.17691648443360
H          -2.81467806029038    1.20649011201910    1.53707423649293
O           1.40850025639222    1.87538931027852   -0.55215961674108
H           2.21586707480458    2.38466400128266   -0.63056748245128
O           0.65565484723754    1.62979087337822    1.88643010443715
H           1.15537567641275    1.88838397072372    0.42636571598937
H          -0.30926152806441    1.56433529710509    1.79735645122029
H           0.97840960805124    0.70226469323161    1.89112453191821
O          -1.29122705684198   -1.40795152339473    1.96240268899291
H          -0.51454483031527   -1.27542472349323    2.51712699696419
H          -1.76121431121350    0.04779932359160    1.46469624625252
H          -0.91180424365219   -1.78987486814508    1.14097515974357
O          -1.16125425869962    1.45329748857362   -1.37235209357360
H          -0.85878388833840    0.07588359729037   -2.01168713199494
H          -1.54553751994611    1.31100532259950   -0.48263000405289
H          -0.27213747886711    1.81013269340117   -1.20555915840343
N          -0.52595615320347   -0.89275834608863   -2.33912344008082
H          -0.32389689065986   -1.48037670975849   -1.41544968050469
H           0.36841711329049   -0.80275925409625   -2.81534818046612
H          -1.21427095567535   -1.35026719062129   -2.92726245036499
