    26
        -50.45620273  Gyration_radius:  2.42259422217 Dipole_moment: 7.327
 S          -0.89727350830009   -0.33157961739955   -1.99468845589077
O           0.59188195023212   -0.47795210500793   -1.95687220780520
O          -1.27574667828247    0.94948790430315   -1.42528910341247
O          -1.44759299818410   -0.65431168212760   -3.26372165109369
O          -1.38089816369685   -1.44955258051639   -0.95963446331468
H          -1.54683911749406   -1.04080437854309   -0.08251873858925
O           1.36414533657201    1.69629425870455    1.20145857601308
H           2.05148941355693    2.26122016006040    1.55560675656140
O          -1.76092512162168   -0.58808566860388    1.53705882125116
H          -2.65226031264169   -0.77130293054500    1.83579670209163
O           1.27380378398137    1.98808687161500   -1.38690906996244
H           1.16478901782565    1.06017615368148   -1.68973554624778
H           0.40734261507767    2.37369046044045   -1.55764297459851
H           1.39486799224984    1.80564091530294    0.20691577544589
O          -1.40396815242472    1.90055897136507    1.03294162035508
H          -1.44927132620452    1.71011085395504    0.07059585718254
H          -1.69537384805186    0.41468539683603    1.42850645638980
H          -0.45916817978009    2.01540914255553    1.22653235118346
O           0.92591183448896   -0.87849953800132    1.92614888008905
H          -0.04250134973117   -0.86301551578404    2.01342154038085
H           1.13883578783577   -1.74724078260320    0.66216053493462
H           1.17415516696468    0.04622920676126    1.71941713097013
N           1.15421437736240   -2.26642979724045   -0.27932452329252
H           2.03490504055612   -2.74597950352044   -0.43246744040125
H           0.96762258431683   -1.49678027909240   -1.06161165047712
H           0.36785384539445   -2.91005589659546   -0.32614515776376
