    26
        -50.45156350  Gyration_radius:  2.67197477497 Dipole_moment: 4.837
 S          -0.91964030204427    0.21079008651015    0.01297252927749
O           0.31394099619899   -0.54994276076439    0.52052703220283
O          -0.62091482591904    1.64391048904653    0.44184635710134
O          -0.98087685361876    0.13543102744448   -1.42659732774343
O          -2.08475047294580   -0.28156697142164    0.69370434755386
O          -2.14414790742091   -2.45989685332361    2.24338495437760
H          -2.26593479514707   -1.63578023617620    1.73123991396599
H          -2.06741116779357   -2.19900189261283    3.16216637829643
O           2.72313325055611    2.35162949481724   -1.57651819262314
H           3.19573200835248    3.18440160768505   -1.53274449346350
H           2.73454576068126    1.96652201763949   -0.66098046663585
O          -1.97977212528689   -2.35186349340435   -1.42034152637601
H          -2.79838657513802   -2.20614834598414   -0.93906470009151
H          -1.64031512557291   -1.46485989020416   -1.63649570502461
O          -0.22630351447622   -2.96260082043250    0.46241586751498
H           0.15491755511455   -1.61841469877651    0.49733381015766
H          -0.85310492706190   -3.02028142927859    1.21776664604281
H          -0.80290222826813   -2.96734316309103   -0.34036357717360
O           0.10326260835293    2.57499628574570   -1.74949676284553
H           1.09517413141344    2.51516440149676   -1.78361618693545
H          -0.23517887879340    1.77570831713244   -2.17906073486256
H          -0.30479932283313    2.14873720415811   -0.42080955812991
N           2.48815331999289    1.41270687717975    0.93028418806971
H           3.26951655059084    1.04279014868897    1.45769114477864
H           1.82684345080885    0.65362939533243    0.78778217809301
H           2.01921938029604    2.10128319261419    1.50697389447554
