    26
        -50.45117036  Gyration_radius:  2.66375195707 Dipole_moment: 3.424
 S           0.33368501826347   -0.94653708585837    0.42691225096312
O           0.44912189760988   -1.61371916236770    1.69098186039033
O          -0.76286601381381    0.12557410707339    0.51725133138869
O           1.55381545595217   -0.33743680935990   -0.05140731316417
O          -0.21747956888087   -1.89817570831957   -0.62819173174101
O           0.50893563574970   -0.26141808979581    3.97340779992293
H          -0.07143230840330   -0.70049563928582    4.59731910836972
H           0.57268953277430   -0.85537123192437    3.19647947388239
O           2.39400809785246    1.67723872913194    1.49182795852560
H           2.20339307068426    0.97886673573760    0.83496018649319
H           2.94248085134570    1.26914847045612    2.16524723442666
O          -0.64879921140435    0.63900014031419   -3.65470341696274
H          -1.38719657342467    0.44706403247337   -3.01838783019292
H          -0.96585576058576    0.39891878937802   -4.52686060324961
O          -0.12012699647430    1.71082737547857    2.30690219930288
H          -0.53746794077256    0.84964525909293    1.28108472038795
H           0.01746789683553    1.11066827839353    3.07609967258229
H           0.79355319339867    1.95092899014381    2.01735405660433
O           1.06170581570884   -1.06128467562124   -2.59463308863715
H           0.49430550937662   -0.38457216385136   -3.05133462159292
H           1.64018970396102   -0.57593086837521   -1.98903149972866
H           0.26167805452998   -1.63814830568462   -1.51885445714186
N          -2.49647896123508   -0.12353053113197   -1.86025466160133
H          -2.61946350617593   -1.12822494059041   -1.90698848913741
H          -3.41222680905849    0.30009464854390   -1.77443270098931
H          -1.98763608382259    0.06686963595315   -1.00074746910079
