    26
        -50.44721205  Gyration_radius:  2.5105501701 Dipole_moment: 3.931
 S           0.71283508055984   -1.98213711204424   -0.28378147361780
O          -0.01389034412848   -1.18942311948435   -1.26388344362122
O           2.02177369959002   -1.36730566424319    0.00342689615677
O          -0.04476390370425   -2.27402237924011    0.89902568853035
O           1.06737715898831   -3.35239020465347   -0.98437604773222
H           1.67774205177931   -3.05937764344411   -1.65253567109453
O           2.39866602329521    2.28539264065137   -0.76170494032282
H           2.38058468109697    3.23824565324692   -0.65978896336575
O          -0.37598475365981    1.44099517688835    1.58137637873958
H          -0.53939860105638    1.93834472643194    2.38417754031070
O           2.05963691511138    0.74433457915395    1.23955926351298
H           2.06221822037080   -0.22969579857367    0.74961614934904
H           2.34019319750433    1.38498261663467    0.48925054761960
H           1.08109916504156    0.97713034708149    1.43980691936549
O          -1.92412724823686   -0.55065529322634    1.64027443298665
H          -1.29639325250480   -1.29074921930273    1.51321337065190
H          -1.01705783722158    0.63239404931925    1.62446587136066
H          -2.42470767484106   -0.51437574569883    0.78822469696446
O          -0.03653482518381    1.47733938984667   -1.22483730438085
H          -0.01858722634611    0.50647713817545   -1.35560258184290
H          -0.41970845232668    1.60685139367397   -0.34661640646606
H           1.50568987454484    2.01703086219306   -1.11758129809799
N          -2.81524618315775   -0.56353932495712   -0.90345696188431
H          -3.48405353561181   -1.26693247894474   -1.18985007660674
H          -1.88840946081674   -0.88839156799376   -1.17862266980799
H          -3.00895273930523    0.27947697871891   -1.42977993657330
