    26
        -50.45620266  Gyration_radius:  2.42264633581 Dipole_moment: 7.329
 S           1.04075014959958   -1.82752627881018   -0.68780378174578
O           0.87183952479206   -1.79929797097084    0.75421991922245
O           1.66999410573535   -0.54866165256630   -1.14513357167120
O           1.67307625266804   -2.97566211576923   -1.23477849252264
O          -0.42517433969003   -1.73652854690307   -1.31880621028400
H          -1.05552717239717   -1.39643683521272   -0.64727377525599
O           0.31611893908528    1.85730464316058    1.62325324684627
H           0.56995686715046    2.64899915980197    2.09847108315533
O          -2.28541179731507   -0.70353053367029    0.29113498391262
H          -3.01891655933467   -1.30837972577134    0.40650833780954
O           2.44351849689967    0.42369723014174    1.16304682738789
H           2.29434522296191    0.13667671692371    0.23571179579577
H           1.16412301997266    1.36192787746023    1.42935380842682
H           2.30327757500636   -0.38701907351965    1.66472471198191
O          -0.80511845394503   -0.57191339808797    2.38033692909061
H          -1.80184062823149   -0.66684899266923    1.17808711349037
H          -0.12831026989453   -1.12611024413853    1.93389671315197
H          -0.46367213991746    0.33610451485660    2.33314002665037
O          -1.41239999309953    1.77086501288578   -0.46319302625712
H          -0.79057924403486    1.90735511654449    0.28122251534702
H          -0.62005479225596    1.24875021519349   -1.68708036291623
H          -1.94148109091319    0.99615990524471   -0.20708707644506
N          -0.05208617829150    0.74297350714488   -2.44712595497258
H          -0.62732973211707    0.02533958672918   -2.88166851722862
H           0.76383569881343    0.20234334544232   -1.91694403451210
H           0.31706654875407    1.38941853656128   -3.13621318845707
