    26
        -50.45156357  Gyration_radius:  2.67150465697 Dipole_moment: 4.838
 S           0.04467356114113   -0.93849092904530    0.08906250980619
O          -0.39198295523455   -1.90792997372100    1.05484938144663
O           1.46768463641859   -0.91708896195716   -0.14835998249789
O          -0.69528146909637   -1.13418682046746   -1.23050394455207
O          -0.42885278216642    0.45422956025122    0.52981713936370
O          -1.45459709677252   -1.32033159753921    3.43726968707202
H          -1.10904808508453   -1.68219763413109    2.59710167024748
H          -2.40996316019866   -1.36481392878992    3.37876462308551
O           0.76433428460810    1.87962528697792   -3.36051792886132
H          -0.05104080541956    1.97860628251258   -2.80188207138333
H           0.50373624355654    2.05907331296699   -4.26536962459492
O           2.07326267173402   -1.06208353193047    2.45843337520449
H           2.06744292019521   -1.01806829014161    1.48545321747931
H           1.66375688736815   -1.90163402605962    2.68298303687842
O           1.17026648778793   -0.66467804795547   -2.80910747907708
H           1.10822627569504    0.29458096831851   -3.06358602968366
H           1.78711734561911   -0.71175288636019   -2.06398588546498
H           0.00783017495272   -0.96435881311482   -1.98953881156805
O           0.17518995330426    0.72209644025020    2.91288487481127
H           1.01964420103547    0.20847853173160    2.91182292163822
H          -0.17230688703136    0.64911390009264    1.56141152098069
H          -0.48101636961452    0.11936246598841    3.32877355717169
N          -1.46246007167620    1.86203251083211   -1.85667829996436
H          -1.98514565817379    2.70003933456671   -1.63288862506272
H          -1.09894460779763    1.48485134016307   -0.98519890892629
H          -2.11252570515147    1.17552551656955   -2.22100993355306
