    26
        -50.45116945  Gyration_radius:  2.6621116477 Dipole_moment: 3.407
 S          -1.05168972416168    0.30611793027662    0.10374575462476
O          -1.93701266758205    0.91518192635678    1.05311320668278
O          -1.12238090487116   -1.13617178564963    0.04635956877052
O          -1.27773209637539    0.89067159731637   -1.28533917020828
O           0.39274672115681    0.72718875571789    0.41435347489301
O          -0.29097907331708   -2.32931086277961    2.28920124150246
H          -1.06911188389085   -2.39293163558596    2.84710972162407
H          -0.60726946912269   -2.03448055192942    1.41248864443302
O           1.71258898695622   -0.87270339069892   -3.22685508782115
H           1.81213545550161    0.02448617185327   -2.81213818117084
H           1.89527402933633   -0.76715017277358   -4.16190430732834
O          -1.39352240785778    0.90125588103164    3.65045271925306
H          -1.56808503023934    1.77763263129652    3.99735096292528
H          -1.73241833051950    0.90007329174555    2.73087582014066
O          -0.83699842817810   -1.16031530602974   -2.62831182646621
H           0.12414735329183   -1.14998871545587   -2.88233790840684
H          -0.90456993663803   -1.68353619697279   -1.81673231234171
H          -1.11905036700688    0.10168278420988   -1.95034312972357
O           0.91792381573622   -0.01800556905676    2.71597976606913
H           0.68049809810329   -0.97525644348022    2.65546409453996
H           0.68201406817105    0.42702717437391    1.40660032283010
H           0.18346366405444    0.38374625772073    3.23564211683932
N           1.68637386150517    1.56719743185867   -2.10313452434068
H           0.95588618487188    2.12904505574928   -2.52433172671297
H           2.50671616054783    2.15085712846360   -1.99468481152866
H           1.36105192054200    1.31768662243659   -1.17262441906723
