    26
        -50.45620272  Gyration_radius:  2.42262292543 Dipole_moment: 7.326
 S           0.51548742936066   -2.08954475193231    0.51247862629287
O          -0.83066286977320   -1.92314729823644   -0.12052212383928
O           0.63149698859046   -1.19777760787788    1.65263705088509
O           0.85433004411178   -3.45169615703677    0.72952680506288
O           1.49896951440479   -1.52019567737289   -0.61165519907803
H           1.72318547405505   -0.58486551923698   -0.41437332704979
O           2.13567492552944    1.05818838538314   -0.35428452529168
H           3.08463997580978    1.17801995741147   -0.30469752595698
O          -1.50138191886079    1.82256683382481    0.77920273300110
H          -2.22916086217745    2.41360335146270    0.97425813769612
O           0.99996832783057    1.40157756335059    1.91872820115095
H           0.12312809202344    1.73105905232207    1.66208531752182
H           0.89410180681342    0.42955267882005    2.01078749957127
H           1.77100004416372    1.27660215577524    0.56281529712410
O          -2.03979806330162   -0.53678986249001    1.74684969933256
H          -1.76887456576612    0.92290032087205    1.12719543548637
H          -1.74147135244608   -1.12445139191086    1.01865366991058
H          -1.37163597595647   -0.67933965416811    2.42639503959823
O          -0.21903518795741    1.65083574015191   -1.60279596531318
H          -0.75357182393423    1.77360849760258   -0.79122587608651
H           0.70226438317560    1.62427515837425   -1.29272936346557
H          -0.43937857761150    0.21276132820998   -2.13359613556075
N          -0.50486087073553   -0.83515963561272   -2.36519396932139
H          -0.70961956905936   -1.35389023738040   -1.40174675019412
H           0.40254409750036   -1.17245849164227   -2.67761743484515
H          -1.22733946578890   -1.02623471866311   -3.05117531663083
