    26
        -50.44480448  Gyration_radius:  2.71551003199 Dipole_moment: 5.515
 S           1.76198814018374   -2.34345074944991   -0.61066821218150
O           0.29585768153720   -2.51455720754421   -0.57478699305031
O           2.12805152101185   -1.32635173485070   -1.58219737558770
O           2.31118949278019   -2.15273008385259    0.70400086709294
O           2.34129792215914   -3.70478468234433   -1.17396053988272
H           2.28852133460481   -3.58818302477808   -2.11786219772784
O           0.86513040782747    0.78790004455364   -0.79574057720589
H           1.50249408935986    0.13934778230569   -1.18642795029730
O          -2.56791078858782   -0.23635576657914    0.69005648651031
H          -3.49259171900317   -0.00543882714943    0.59852507490335
O          -1.31357528015724    1.67131748884379    1.91285638109213
H          -1.02435601054890    2.33882695091251    1.24224637410923
H          -2.13184597380361    0.51374655262490    1.19899425709173
H          -0.51697371330564    1.19038316565974    2.16805076634611
O           0.52870487387349   -0.44695211675518    1.55832310100451
H          -0.24921017697852   -1.01364127361940    1.56160147880437
H           1.28251201656348   -1.06268721679610    1.41395788446027
H           0.82892281736355    0.54114549527918    0.15572138195232
O          -1.11241456230425   -0.65548092569930   -1.35581892926090
H          -0.55192808812987   -1.53468651130032   -1.09564235966085
H          -1.76362682308085   -0.51623192772228   -0.57397337358665
H          -0.37340078961375    0.07380969309818   -1.24094952448892
N          -0.39126612078236    3.33475840154309   -0.02119091035353
H          -1.04424890341184    3.74775033558869   -0.67465500800783
H           0.19911860751214    2.68730209472757   -0.53560694189764
H           0.19956004500723    4.07524406336535    0.33514682959929
