    26
        -50.45620272  Gyration_radius:  2.42259653477 Dipole_moment: 7.326
 S          -0.17858521188729   -2.01440229241368    0.89704422977369
O          -1.27788145101134   -1.66408993645835   -0.05659493235109
O          -0.05371744059549   -0.97260944796290    1.90090519072588
O          -0.26893900627683   -3.35045890452559    1.37053014649695
O           1.12351618722339   -1.91538136901930   -0.02490409134731
H           1.54846114114282   -1.03821932647731    0.09326426170332
O          -1.07745774924189    2.23631179711025    0.14455411335863
H          -1.64280182989305    3.00632467418059    0.07800713652928
O           2.36829666444940    0.44384554391126    0.02949306428460
H           3.28526223974447    0.34673828510917    0.28848880952232
O          -2.41204647916447    0.29675287285866    1.26220883241622
H          -1.64075032974021    1.50699596994873    0.53553779315792
H          -2.14582019470752   -0.47242522708134    0.71266887462791
H          -1.95467030605611    0.13534821242323    2.09484529852433
O           0.55508149104079    1.31866856779160   -1.81507541339683
H           1.35506383241656    1.13796960377551   -1.29251161893970
H           0.06405518308035   -0.10278518591109   -2.18512387501460
H          -0.07575924152760    1.71540528945825   -1.17939853596821
O           0.94201529720835    1.47113728712730    1.89622567752217
H           1.90253629079524    0.91262026259155    0.79438933456624
H           0.25503109862712    1.94026447309391    1.39495162714294
H           0.56194795780938    0.58657185151199    2.09002607325762
N          -0.23463775477939   -1.13100292318200   -2.28289543947170
H           0.59123746501325   -1.72365350177536   -2.32088073323882
H          -0.83199217822188   -1.27597020457894   -3.08985107878998
H          -0.75744568544968   -1.39395636150414   -1.33590475509384
