    26
        -50.44495251  Gyration_radius:  2.70078378945 Dipole_moment: 4.634
 S           1.80569156234459   -2.34239237324817    0.16223578007177
O           0.89384766920111   -2.39094589314167    1.32041426573135
O           1.06408988000385   -2.46232192836265   -1.08082084135336
O           2.68128785188375   -1.19853940370306    0.20984625513780
O           2.70696168064372   -3.63460744683789    0.28307646562887
H           2.07123753492756   -4.33619341636047    0.18074132514914
O           0.61372090626605    1.93909731454738   -1.37468254499857
H           0.82605071781714    2.58562852725027   -2.04792220616273
O          -0.30527589887741   -0.24111424853531    1.28997962370714
H           0.15628620782033   -1.19217007523911    1.42941267368901
O           1.76239617889983    1.12251382170134    0.96150451878765
H           0.52552816575142    0.42009218930966    1.27488554231483
H           2.30430919563803    0.32309444426702    0.75803025317782
H           1.58254995912447    1.53101096728557    0.09361156091775
O          -0.62708734277635   -0.50347003613443   -1.20321458416543
H          -0.12340425338394    0.26216734973733   -1.53228737343570
H          -0.02906430513129   -1.29104442816582   -1.28794340648364
H          -0.59074054341741   -0.29742522810630    0.29095722134292
O          -1.30765016791972    2.73106711888628    0.23508517496050
H          -2.01215629071940    2.03872946075218    0.13660267420052
H          -0.99475544066905    2.67134584834384    1.13992653508595
H          -0.12649900161892    2.32172510765824   -0.83188815147629
N          -3.07754087339351    0.71221266960167   -0.05017916425252
H          -3.21927241259029    0.17071141766373    0.79348274070815
H          -2.59471988274398    0.11957954346235   -0.71822526526364
H          -3.98579110695183    0.94124867739617   -0.43262906300791
