    26
        -50.44480576  Gyration_radius:  2.71564239619 Dipole_moment: 5.491
 S           1.53966728333767   -1.89731904615817    1.73005395270304
O           0.69439698382310   -2.73801720253328    0.89827862118335
O           2.25921542183115   -0.91084577628859    0.90061930481452
O           0.87141101927316   -1.27575080449524    2.84096398180372
O           2.65029297407601   -2.85895811169532    2.32040135996854
H           2.74179217627798   -3.52265101548770    1.64329661381678
O          -0.86701487262393   -1.06961815241369   -0.31058369751395
H          -0.45336846304084   -1.85802185167552    0.12176206737393
O           1.07129661825728    2.19781796642994   -1.07690346005375
H           1.24858561684900    2.77802894387927   -1.81763261694436
O           1.31959081457089   -0.32611468995527   -1.29617197528837
H           1.82942942643063   -0.61226108906863   -0.39509634397288
H           0.35265824279001   -0.65174286545559   -1.07084646524557
H           1.28111726047603    0.69958953860581   -1.26359535599076
O          -0.14041159731178    0.73998803791923    1.52631371184493
H           0.67035971641932    1.19696388689266    1.28109542159526
H          -0.83725492834597   -0.37487591241899    0.38523194553644
H           0.14631829883716    0.05869295331313    2.17589556242235
O          -1.39099537517509    2.47757613894738   -0.32313804254901
H          -1.95926502717820    1.86885098251780   -0.85736220646184
H          -1.32693730495025    2.07830364458898    0.55293723399443
H           0.11925234620191    2.36604952974496   -0.79934151644884
N          -2.83310436036548    0.63154274287301   -1.69117632959010
H          -3.80021022161674    0.58178981238866   -1.39682257046988
H          -2.36877567425038   -0.21522400362246   -1.37517971247098
H          -2.81804638474094    0.63620632324057   -2.70299949409444
