    26
        -50.46489364  Gyration_radius:  2.55383868704 Dipole_moment: 4.634
 S          -0.64408794522109    0.46314076257575   -0.22935806351216
O          -0.77897467331170   -0.98655517220826    0.04065944798008
O           0.76790543822225    0.81084314700798   -0.39096511772709
O          -1.39062239699816    0.77516109780558   -1.52652225956705
O          -1.25906808283524    1.21524542055899    0.84572938396032
O           2.04834152317016   -0.45268142657224   -2.31890440075807
H           2.64423051773094    0.19039640736554   -2.70671566133778
H           1.63852892339794   -0.01114043071847   -1.54271101444777
O          -1.44529346199706   -2.73349854783389   -1.86920022481075
H          -1.16508155472544   -2.18621620546811   -1.10752253524115
H          -2.40397423691106   -2.72699631958613   -1.86521015000081
O           0.09960268692876    2.76320374789384    2.49334275506730
H          -0.48059596633433    2.26424441885125    1.87418275165171
H           0.15795533168026    3.65093704434349    2.13776859395144
O           1.81534160514941    0.77673009884101    2.02176947772621
H           1.44176140452131    1.62290546241457    2.34825719401749
H           0.72785813515349   -0.15742051535563    2.43033320242071
H           1.62012507510568    0.79279567189423    1.05616535236297
O          -0.41713534686935   -0.71289787051174   -3.31166860938590
H          -0.74978162654488   -1.58080781608258   -2.99908401054183
H          -1.00086313947076    0.20514905636780   -2.30000540328523
H           0.54382246708095   -0.70954235834087   -3.10371768453082
N          -0.21709391336341   -0.71433503862403    2.52756972627960
H          -0.47917318693336   -0.97283693609926    1.51297331696158
H          -0.92962322782499   -0.06063459581611    2.84884302759627
H          -0.14410433880278   -1.52518911271082    3.13399090517001
