    26
        -50.44495313  Gyration_radius:  2.70029831822 Dipole_moment: 4.630
 S          -0.43031032172180    2.73337729870800   -1.05105843944093
O          -0.78384592225972    2.76307198547251    0.35729010061796
O           0.99554167675840    2.39886009072883   -1.22449039428510
O          -1.28503136772460    1.88996206607063   -1.84817742975371
O          -0.58396938354925    4.21010123398217   -1.59191057477578
H          -0.05052016818504    4.70776516433575   -0.97983183040118
O          -1.89214527598977   -1.54477861761739    0.25241041875242
H          -2.67702239866803   -2.04102592124020    0.48482722184891
O           1.17370444156117    0.00756043237489   -0.66758460041827
H           1.22940531263496    1.03317023926001   -0.95456978977124
O           0.30138908919967   -2.98981653011734    0.36859003790184
H           0.86821066392485   -2.52569580937088    1.03832698372821
H          -1.12206749996186   -2.16799746119972    0.33896845592905
H           0.76262419510918   -2.92029924737063   -0.46968275194781
O          -0.30643000825447    0.41484837009826    1.34192580494477
H          -1.07701814746718   -0.13414815378800    1.11242767127072
H           0.67118680063177    0.07743476358885    0.23981789816836
H          -0.54037974320656    1.34737014357161    1.09568540344701
O          -0.78051226004293   -0.65753098011756   -2.07414192361755
H           0.43904377124359   -0.37889212293733   -1.33111524468100
H          -1.38440914336177   -1.01806538874186   -1.39738551635857
H          -1.06366212447637    0.28051852444435   -2.19268734547325
N           1.77084053788309   -1.55162659836137    2.11853608220441
H           1.14135228795712   -0.77778249684642    2.30751163292544
H           2.62090831706963   -1.16658773747136    1.72590020597515
H           2.00311668099013   -1.98979324759873    3.00041793314214
