    26
        -50.44495298  Gyration_radius:  2.70145500065 Dipole_moment: 4.645
 S           2.10063868535173   -1.57748497062266   -1.37072997534470
O           2.07274640991587   -0.26770543333877   -1.99783233042606
O           2.47257532626969   -1.46684060459112    0.05213141651353
O           0.89063126016125   -2.33807493427266   -1.55659114186593
O           3.27689541901873   -2.38408104028542   -2.05094900076774
H           4.01454869170137   -1.79007044863613   -1.95156939013948
O          -2.22067471010398    0.24137368930127   -1.01170913789672
H          -3.00231889404172    0.43798232263770   -1.52814436990088
O           0.51377400885819   -0.46732995706242    1.15838805284141
H           1.41264117039118   -0.92242592276329    0.80831187597197
O          -1.12143845567537   -2.00976304537749    0.06826219279573
H          -0.44468514640608   -2.34058773821908   -0.56952869828031
H          -0.23216785765138   -1.15313742673806    0.83958118109886
H          -1.66211519506850   -1.37931425742322   -0.44427225304527
O          -2.46082843231081    0.93627002089399    1.51194900662840
H          -2.40359261716105    0.55069119246766   -0.08435969954198
H          -2.26329850499093    0.17474805095240    2.06090477578604
H          -1.72382926559266    1.58496324161931    1.65875184036905
O           0.33983061228081    1.19195897136472   -0.74112437472760
H          -0.52822191463804    0.95150587260123   -1.11117932271474
H           0.41529951409886    0.32708133135116    0.49434154278663
H           1.02100967095797    0.74780785509762   -1.31002135881768
N          -0.34396905219166    2.58919728032825    1.78514775584192
H           0.35924786938980    2.25243335563644    2.43101759874071
H          -0.53642937183797    3.55727681349285    2.00750382327891
H           0.05373078934636    2.55352579162964    0.85172000083957
