    26
        -50.45364705  Gyration_radius:  2.37540126456 Dipole_moment: 2.947
 S           1.20514589191490   -1.15315774037588   -0.66412658798158
O           1.80339095550939    0.16903232988199   -0.87242700756204
O           1.51987311602576   -1.69882194135667    0.63552276236503
O          -0.20493977537072   -1.13950611220000   -0.98422150490283
O           1.88040302783693   -2.10871432997537   -1.73217519931326
H           2.74999479690506   -2.24680637305089   -1.37156070800573
O          -1.64069032610246    0.47571950891021   -2.63288174005394
H          -1.09974367704385   -0.32501101278628   -2.55351321314356
O          -0.79020968855631    1.37100320432234    1.28887759152004
H           0.12128716348095    1.51354703988969    1.66152756504738
O          -0.11656200069057    1.78103484670992   -1.08059188311559
H           0.72373534026529    1.19156502839670   -1.07797004920904
H          -0.77096365935989    1.34459848193592   -1.76142053701634
H          -0.50268941806679    1.64969056765310   -0.09066229389237
O          -0.81031047530047   -1.25328615722004    1.79086226626739
H          -1.39817527423014   -1.94947133937530    1.49160793273613
H           0.07969706607054   -1.47761008751427    1.44683709442116
H          -0.93703625895671    0.41629127123440    1.47111370228225
O          -2.80818947088839   -0.37025049418969   -0.37204992717376
H          -2.39875020683470    0.30030685501296   -2.04055066739821
H          -1.93706221173026   -0.79862638049568   -0.40887501386854
H          -2.80242824346101    0.20402807068284    0.39749003757135
N           1.78148595049774    1.14408106312651    1.87213301852489
H           2.48849504772885    1.80952528456559    2.15843746940896
H           2.02249506821057    0.80940077680722    0.94119609323862
H           1.84174727215473    0.34143764937093    2.48742079924075
