    26
        -50.45364709  Gyration_radius:  2.37544254102 Dipole_moment: 2.951
 S          -0.78963172566585    1.31584968052859   -0.93200278092338
O           0.63987216970201    1.46152235699422   -1.22315333084235
O          -1.44161066933569    0.39532267270128   -1.83386044348240
O          -1.00681387252078    1.03775221373247    0.47028177646349
O          -1.43360708039934    2.73945543638511   -1.19369917546184
H          -1.44541203362473    2.79435030110647   -2.14341983618593
O           0.51415602002808    1.59765635268038    2.65130791388673
H          -0.16887431136916    1.90715042616293    2.03649299971080
O           0.99446927057827   -1.75425514320506    0.31812530914139
H           1.25690276968369   -1.75335982188947   -0.64176302397081
O          -0.85663282104925   -0.70814621807953    2.63292183961881
H          -0.41054044219712   -1.51556971036132    2.36640933513302
H           0.11311667625813    0.80507474485237    3.05974128861142
H          -1.09620798976260   -0.23767725503277    1.81750774631176
O          -1.62772284619077   -1.65734400003624   -0.18605689524965
H          -2.37609005542312   -1.47771200151012    0.38622855439154
H          -1.62292212490793   -0.94890953900618   -0.86344772999207
H           0.01341388659273   -1.77409975224887    0.26038568598185
O           1.85933724957208    0.54270824740394    0.77633934874616
H           1.51597383160921   -0.46773751597389    0.68333778075247
H           1.45098421199691    0.99917926069570   -0.04719800545303
H           1.40477012281526    0.98172038053207    1.60229357528305
N           1.19233659660976   -1.20243050396938   -2.26253399193872
H           1.93638157446033   -1.31611229632985   -2.93937423528780
H           1.04573990739701   -0.20500510436802   -2.11979673162402
H           0.33861166531997   -1.55938320199956   -2.67506697395013
