    26
        -50.45364699  Gyration_radius:  2.3757173852 Dipole_moment: 2.955
 S           1.48445151261943    0.34029001441609    0.95020281709836
O           1.43587941674571    1.40728076112530   -0.05428246254108
O           0.74147885061567    0.67543241298433    2.14241864710412
O           1.13875032302650   -0.93647285782509    0.36607120038124
O           3.00389807617302    0.21912104428588    1.38240105859936
H           3.12863777377151    0.98568135347417    1.93210530426636
O           1.29614467671569   -1.82861519465526   -2.20011731476845
H           1.76124771962261   -1.71605006227543   -1.35718123733901
O          -1.90195109360995    0.26897057967243   -0.69151147660182
H          -1.86888919071268    1.20392723992301   -0.35240927846069
O          -1.37730413076620   -0.83018434878715    1.68697841749766
H          -1.13104641206046   -1.72438155411158    1.93118981717581
H          -0.62900721372381   -0.25612449088838    1.95389311214077
H          -1.77095223683649   -0.25050250002141    0.13255236897968
O          -0.76253240725154   -2.66298789714279   -0.69916213322644
H           0.54364775028919   -2.41000434612795   -1.97130698962865
H          -0.20165647403659   -2.12178486809613   -0.11909792399794
H          -1.60521083039270   -2.20855158343521   -0.77268026868013
O           0.20001921850225    0.45345232393899   -2.02664864623659
H           0.63792574060629   -0.47219976728352   -2.20788330019554
H          -0.73807670841607    0.30538233457711   -1.53146289488126
H           0.77239018395311    0.90168287018485   -1.30185697046680
N          -1.19635455458286    2.50439607477766    0.53673019380951
H          -0.20153429641629    2.33023178714850    0.40752054546983
H          -1.38930802414663    2.33887741401771    1.51747828245347
H          -1.37064769969084    3.48313331010593    0.34605911203509
