    26
        -50.45364700  Gyration_radius:  2.37540762959 Dipole_moment: 2.953
 S           0.12635524260248    0.45962109563035    1.73145160160748
O          -0.58134507143789   -0.82438496469600    1.73827430590208
O           1.56100832526680    0.29500225300187    1.75386604423616
O          -0.36305750268278    1.31509241204040    0.67323739948873
O          -0.26819930032668    1.18068317287941    3.08573534307871
H           0.23731968183811    0.70184111303847    3.73418989815646
O           0.37873685213952   -1.05431868975212   -1.70637695015751
H           0.77039978014271   -1.77713783647982   -1.14575948914520
O          -2.75851048719497    1.36481019291424   -0.60590680193798
H          -2.23401976512138    1.66649754608555    0.15199165111717
O          -0.55946176616398    1.92535446614673   -2.03644893138758
H          -0.14894216868770    1.22956447090616   -2.55542980995507
H          -2.27364417267959    1.72092133939652   -1.37653603618912
H          -0.26760931566482    1.79995303044974   -1.11847507187165
O           2.02839281578585    0.83570490261010   -0.78641532219337
H           2.00460702005299    1.79101093350269   -0.86806023841753
H           1.95995590562146    0.63974644338851    0.17152135296074
H           0.95824157127491   -0.29115507339994   -1.48731310210813
O          -1.78635955336107   -0.97418373370596   -0.46495881288126
H          -2.27444073837864   -0.06212514550496   -0.57432049316226
H          -0.91513520419531   -0.98197649865573   -1.08782435086864
H          -1.38994303684641   -0.97089010164912    0.48174827099798
N           1.36445240793675   -2.45496209096580    0.31123164380439
H           1.40716347225129   -3.44673427307099    0.50931288731564
H           0.74048101411320   -2.02428883957456    0.99084173374275
H           2.28355397386349   -2.06364613442416    0.48042325817184
