    26
        -50.45364705  Gyration_radius:  2.37542228394 Dipole_moment: 2.948
 S           0.37181611349981    1.32601705305737   -1.15196006061706
O          -0.57924580690110    2.22879239298792   -0.54682550507192
O           1.58979227360013    1.17993011025134   -0.34896246798242
O          -0.17042328501950    0.03405974921236   -1.50950020496822
O           0.82711904013378    1.99418660931471   -2.51444710350267
H           0.98473507883479    2.89832557947324   -2.26357434829769
O          -0.40800557719805   -0.88343065588661    1.79426478165864
H          -0.07110675728259   -0.06514353254431    2.24896741688874
O           1.02687557680942   -2.39419800485475   -1.75036124729271
H           0.79573633428431   -1.55843539510154   -2.18417818863014
O           1.64420690215198   -1.21732936495473    0.41083461852497
H           1.74243632393981   -0.24632417532950    0.09257160819598
H           0.75482410718222   -1.18391728081341    1.00595037971786
H           1.46062545919373   -1.78212985934656   -0.44315694489771
O          -1.47528239858038   -2.31570652287050   -0.78866481246594
H          -1.24169057505887   -1.40249570142272   -1.02361449389750
H           0.15912480369902   -2.77567126351709   -1.51022690711174
H          -1.60877560084624   -2.33185872172566    0.16211473966608
O          -2.26197704388953    0.41786516415049    0.37684557159045
H          -1.15616618039185   -0.52778583089045    1.26505973731728
H          -1.71064287655903    1.16299043871964    0.05817574999575
H          -2.79673366502316    0.14023291485988   -0.36933361246192
N           0.46180114091763    1.56291164970820    2.30889500800959
H          -0.35403376847110    2.15671335658839    2.21782819697808
H           0.96573193568569    1.63180396362630    1.42688372802270
H           1.04925844537940    1.95059728732725    3.03641436060926
