    26
        -50.45364708  Gyration_radius:  2.37547904488 Dipole_moment: 2.953
 S           0.31588958472843    1.39745714245419    1.08273541066730
O          -0.38855326086045    0.79989747839633    2.19287853984542
O           1.63246474947573    0.78950613846260    0.86704732432675
O          -0.43888085287566    1.44865980944510   -0.14966622727986
O           0.59353961070761    2.90553465346669    1.48071674714015
H           0.90850328388478    2.83274583551570    2.37552019096237
O          -0.17871294402446   -1.95634766794491   -0.55508708001655
H           0.33455489368998   -2.21106136764134    0.25839026489576
O           0.38449580837964    1.48150263002626   -2.73874079176237
H           0.18181587004255    1.99884628088790   -1.94397466355148
O          -1.87162270517912    0.15339507198587   -2.15409325715743
H          -1.83237556927436   -0.79622225100078   -2.01733567828666
H          -1.57323874315575    0.56845719781068   -1.32806785759270
H          -0.46456403015712    1.04591307716824   -2.95143680162830
O           1.52798837851139   -0.33211659139847   -1.38218404735583
H           1.68589122693547    0.15156173253612   -0.49072681032203
H           0.77325909278984   -1.05010066567862   -1.13310509742333
H           1.12272659198590    0.37761700377376   -2.02545617732844
O          -2.08507470718794   -0.66505677558284    0.80042324843362
H          -0.96115497170575   -1.50424815116189   -0.16824473694567
H          -1.51333798165415   -0.14498739611433    1.40326447059796
H          -2.77749285721918   -0.07019879731907    0.50620500560386
N           1.06743081669035   -1.91865940490643    1.77954512493119
H           1.40468209001047   -0.96677756309540    1.64967840275888
H           1.82251004148192   -2.46817594728074    2.17012761021003
H           0.32925660403295   -1.86714146288228    2.47158689627319
