    26
        -50.45364706  Gyration_radius:  2.37543600041 Dipole_moment: 2.947
 S          -1.17305675952771   -0.16121579997069   -1.34937456201031
O          -1.74362726477763    1.14525158799998   -1.11804752359805
O           0.13694218734441   -0.08865373224764   -2.00371569086658
O          -1.12097121050075   -1.00950016511226   -0.17950107168142
O          -2.13031485493621   -0.89863663318481   -2.37400745030964
H          -2.29535707907697   -0.22809070475708   -3.02858656761006
O           1.37283554561214    0.90328077519725    1.21014893344383
H           1.48863571264202    1.60726819280379    0.51658370010739
O           0.54954950917880   -3.05548236167819    0.46426174942800
H          -0.26500002722212   -2.78829929374435    0.01136165943746
O          -1.25633120595067    1.30138334105386    1.47066314523551
H           0.41960984471524    0.99297417206559    1.43291133799098
H          -1.49784251783957    1.33011800188958    0.52113034517427
H          -1.93381434091991    0.77995488254003    1.90534163007139
O           1.79694757369157   -1.00118050721480   -0.34858669493884
H           1.38540292321477   -1.89361194576913   -0.00754723091619
H           1.18734153578961   -0.68068903946195   -1.10972716208184
H           1.66223535077707   -0.24585190305351    0.39812324211378
O          -0.29814064652501   -1.45402984666209    2.44079029528136
H           0.26664487989662   -0.73243537880721    2.72786283811836
H          -0.74662880509430   -1.15469052428247    1.63268135200736
H           0.38403829929880   -2.81196399083990    1.39681599892499
N           1.07656459999322    2.44608978077789   -0.91992775637475
H           1.72124287312337    3.00144234982994   -1.46824164381141
H           0.26502412253101    3.01845341948095   -0.71923298428681
H           0.74806974462612    1.67811530308306   -1.50217987885919
