    26
        -50.44721207  Gyration_radius:  2.51043460509 Dipole_moment: 3.930
 S           0.76856950014258   -1.89632245136620   -0.57617263607666
O           0.11081392974373   -0.94153409375475   -1.45534924160066
O           2.03834447471790   -1.33994546924406   -0.07415344893945
O          -0.07832963535981   -2.39917385997378    0.46696338930093
O           1.20364925566870   -3.11638368441343   -1.47957902452980
H           1.86094433375112   -2.70573721244857   -2.03114374208927
O           2.41137422415782    2.39108646006290   -0.13490980366491
H           2.36818890613546    3.30976289246290    0.13483415761340
O          -0.52906698296374    1.13020419175152    1.77837275400320
H          -0.76629564117276    1.47417796491814    2.64088830644589
O           1.93803933788675    0.51286342566797    1.52126013942268
H           2.26743427707448    1.27934340649344    0.92449627978339
H           0.94248087373396    0.70318260977576    1.67788304883430
H           1.99768732669467   -0.35636401276402    0.86591118055233
O          -2.04155030332044   -0.84309666262301    1.34826486724153
H          -2.47138115647537   -0.65423584250330    0.47794191678616
H          -1.39277723200654   -1.54645481520455    1.14261909327434
H          -1.15723346108939    0.32544858089259    1.62172649018488
O           0.03684470003102    1.67378551898429   -0.93762539839468
H          -0.41877126773541    1.64097104259344   -0.08546153119388
H           1.55531759815964    2.18895269429588   -0.60644671106716
H           0.08291385466501    0.74281729925114   -1.23951282036479
N          -2.72084450559674   -0.39705407198301   -1.22160428221823
H          -2.88468406515551    0.52702153553212   -1.60171741187602
H          -3.35231565040343   -1.03790464524044   -1.68494041678411
H          -1.76935270180983   -0.66541082160040   -1.47254513495454
