    26
        -50.45116926  Gyration_radius:  2.66190675372 Dipole_moment: 3.385
 S          -0.87103481714581    0.03731619759413    0.67411306903801
O          -2.23158290413090   -0.40882447202157    0.75092390221141
O           0.07905251223005   -0.78652443153360    1.38637499909327
O          -0.45006490451192    0.13063304432886   -0.80040224456912
O          -0.75783196108384    1.48225517806626    1.14492891771153
O           0.35289610881798   -3.23728754244557    0.35454228984637
H           0.36656169555778   -2.38067294216532    0.82527645531267
H          -0.30803246648056   -3.77486134286515    0.79605672965805
O          -3.08906430888470   -2.46168507563230   -0.69502886591753
H          -3.93677441589224   -2.22579926027842   -1.07532717477589
H          -2.86685161570189   -1.74769372189214   -0.06152937333146
O           3.06157919101620    2.15724871544366    0.26595503092726
H           3.52519129301976    2.97824777866404    0.43871583648088
H           2.33010596515256    2.36971664773630   -0.37174628970503
O          -0.69648624316970   -2.12089572290388   -1.79929076448912
H          -0.53408958528351   -0.82375663067885   -1.29132566505570
H          -0.16293942848569   -2.65966054224831   -1.16577622475630
H          -1.63179147361490   -2.34215158918470   -1.58190068215570
O           1.48639563254258    1.35019713894952    2.21744319100908
H           2.15883407229901    1.61831677790597    1.53598323488816
H           0.16703844976877    1.54912442074935    1.62460492768768
H           1.42529312058267    0.38477574480277    2.18310024827818
N           0.90075191911267    2.72047037900179   -1.22719761405783
H           0.28968035197526    3.34969713085518   -0.71994298629974
H           0.45052323231393    1.80878993871435   -1.21911622668504
H           0.94264060000436    3.03302415103367   -2.18943470034250
