    26
        -50.45567402  Gyration_radius:  2.4612602323 Dipole_moment: 5.086
 S          -1.20731890120375   -1.48033977959677   -0.37230663567981
O          -2.11412544598793   -0.27700224397403   -0.04652483312616
O           0.16869947882243   -1.07159243743005   -0.23224030758580
O          -1.58001039567549   -2.60614314136689    0.42849529293329
O          -1.50157102974057   -1.76533604800026   -1.84793979632900
H          -1.21298858800761   -0.88588186348682   -2.33340129217521
O           1.21364841386571    1.94074275251718   -1.21969737108991
H           1.73027455223434    2.74389107580583   -1.29997912920861
O           0.72604433712574    0.44339380206633    2.60946581472550
H           0.52419638307530    0.69647755153597    3.51181897763274
O           2.41647995170800    0.22280894609092    0.36713074036459
H           2.13826454862811    0.45235540918358    1.26454128359198
H           1.76612701240287   -0.44522881452975    0.08980054985530
H           1.76819208634642    1.30173288329868   -0.69492911281316
O           0.06578783604255   -2.13132809642791    2.48708537502555
H          -0.62750386761742   -2.34172811136054    1.83085721135870
H           0.83761787377417   -2.62660052681711    2.20374379817603
H           0.46556601858670   -0.50809685650518    2.53106005430213
O          -0.71682598403809    1.68478352779740    0.68739812288472
H          -0.19307344805392    1.28404148343444    1.41435997911992
H          -0.08086553384912    1.84049717336043   -0.03967626134351
H          -1.57116847836139    0.54857960738250    0.25727567541057
N          -0.81551142470583    0.49733435835656   -2.82578243331002
H          -1.59833299119204    1.11838431500388   -2.66457994235689
H          -0.58191324465749    0.51665767179391   -3.80998469385368
H          -0.01968912951438    0.84759735187019   -2.29599105650790
