    26
        -50.45567410  Gyration_radius:  2.46116973442 Dipole_moment: 5.090
 S          -0.81387277236849    1.76169022787579   -0.14570130835631
O           0.60526202370772    2.00441846028908    0.40517052830954
O          -1.01316408304808    0.34115327332504   -0.29590268198447
O          -1.78014401001077    2.41551267704689    0.68282661454068
O          -0.78054453639889    2.41591380920989   -1.52991996603598
H          -0.04046946842634    1.88177756511965   -2.03926885619921
O           1.41883135579672   -1.66436756280893   -1.39419908054672
H           1.94988230535219   -2.44450682299314   -1.56085635191292
O          -0.19911094501571   -1.31449579529775    2.40147518181476
H           0.00460537662407   -1.40795684949991    3.33356418535954
O          -2.25762470171377    0.37046926515931    2.34481483257796
H          -2.09127197861538    1.19711734636685    1.85029641797841
H          -2.98215243656960   -0.05671907870796    1.88224495414698
H          -0.94926346705167   -0.67085748739480    2.35213264078534
O          -0.81237746707274   -2.30994137159898   -0.16103603786293
H          -1.12433367263774   -1.40080976620648   -0.31039132187171
H           0.55370434591292   -1.98790389210995   -1.02260724525391
H          -0.59881479804917   -2.32513564916790    0.78217905604418
O           1.73620800593537   -0.19453840673913    0.87919870206228
H           1.07529703093144   -0.62736235724110    1.46171414981939
H           1.70821431587986   -0.69045772750751    0.03622344894872
H           1.09987085522305    1.11992399000402    0.60978744502900
N           1.11401101166631    1.04145741048573   -2.56320028202694
H           1.04949844582591    0.08902669990482   -2.20905639275762
H           1.97316478826841    1.44849429239294   -2.21595064414215
H           1.15459447585413    1.00809775009250   -3.57353798846237
