    26
        -50.45567373  Gyration_radius:  2.46125412774 Dipole_moment: 5.090
 S           1.42973726730076    0.27484208764573   -1.29078019871378
O           2.06914697758264    0.50797709744708    0.09248325951834
O           0.02722255487841   -0.00783214790732   -1.10808214080883
O           1.70738976432723    1.38278745172501   -2.15278713106375
O           2.13536707813613   -0.98242061227035   -1.80683952368784
H           1.88355068898062   -1.71449031602317   -1.10412533015357
O          -1.06386053711423   -1.88511046558670    1.42497861057091
H          -1.63160441419620   -2.27289211565887    2.09248572191912
O          -1.44109124506759    2.19218682557311    0.81302360763169
H          -1.52039223294302    3.03239610510117    1.26776338957459
O          -2.43506914223559   -0.26817798237034   -0.13060191909589
H          -1.65906992408844   -1.36990348597730    0.81520931227033
H          -2.43417510545055    0.59045470636769    0.31461580069062
H          -1.66050106742677   -0.22225432851455   -0.71724994721512
O           0.30473416862412    0.42645257732879    1.88679923440547
H          -0.34205426576347    1.08364034053688    1.55061227943832
H          -0.12886339884342   -0.44478991123992    1.78563828626231
H           1.37098825074812    0.48026035669817    0.85438645380077
O          -0.47220715802119    2.82961136279109   -1.58152205119561
H          -1.05834437049394    2.40064397606037   -0.07541730786023
H           0.39109869856371    2.42159812563960   -1.79107511977709
H          -1.07585962050451    2.49491614573451   -2.24854389592632
N           1.46981527360475   -2.59596274057041    0.06348864307547
H           2.10587348120188   -2.41127812832006    0.82878686302447
H           1.49984243414449   -3.58359350389378   -0.15376640247280
H           0.52832585406155   -2.35906141031651    0.37051952579372
