    26
        -50.45364685  Gyration_radius:  2.37556049933 Dipole_moment: 2.957
 S          -1.76643229804714    0.04865477195739    0.31789711750877
O          -1.11817997570735    0.54264062173538   -0.87657457438322
O          -1.87454092558720   -1.38967654676598    0.39062299564448
O          -1.15685925638954    0.62280385056476    1.52131052178250
O          -3.24651109584625    0.61176953913850    0.26929751893590
H          -3.68784049852466    0.10295115007688    0.94130512179955
O           0.27911933019554    2.82982079272814   -1.32755699438806
H          -0.59075711061740    2.40191860220952   -1.30756628631210
O           1.93896549074059   -0.60732511140588    0.20086930860356
H           1.69362911568313   -1.02702213430583    1.06916863402573
O           1.02303689042049    1.64072308796213    0.78644833145291
H           0.12477911370510    1.31773951783394    1.16403846947924
H           1.49241973174247    0.72955939112734    0.47650313226266
H           0.79301579493345    2.20798859424230   -0.05458936609336
O           0.13674946291434   -1.98646153438342   -1.21013818769763
H          -0.18788372134144   -1.87432549457910   -2.10562266811449
H           1.35836367776862   -1.08954545307751   -0.42877351259042
H          -0.63677647200630   -1.86750132433257   -0.62001474217222
O           1.08551681558060    0.59689692290225   -2.57491240671869
H           0.27930618216409    0.36337036104874   -2.08580623385591
H           0.76824333539934    2.32297951946956   -2.00583017983428
H           1.80040435228242    0.08201612937740   -2.19301841632925
N           0.60020492374381   -1.57639446666199    2.26793283554532
H           0.18308648874262   -2.43712896591619    1.93385271211979
H          -0.12484504459003   -0.86421075836834    2.20633788900667
H           0.83378568267546   -1.70224107259762    3.24481898032793
