    26
        -50.45364623  Gyration_radius:  2.37561616497 Dipole_moment: 2.945
 S           1.11473816140481    1.36969813887925    0.31963056984039
O           1.08408610251515    1.82293261746018   -1.05137007451482
O          -0.18739616127729    1.18858098575636    0.92175792592535
O           1.94303563652151    0.17249751398619    0.49234135920437
O           1.82236899361147    2.51308774071010    1.15761846881701
H           2.56323468316546    2.74831915213730    0.60895952315185
O          -1.01443405053170   -0.44027082166884    2.94250476090688
H          -0.62825382021074    0.41864753526129    2.71408010506564
O          -0.79719559006340   -1.59038560316354   -0.99917799673792
H           0.03635289774958   -1.64143734314469   -1.54015686175027
O          -1.32402411915100    0.94037306066713   -1.67280588851586
H          -1.94606390870142    1.57147946037218   -1.30582518445890
H          -0.43145400857618    1.32103105546979   -1.53421667632269
H          -1.12374174372817   -0.68853437964821   -1.21510326982028
O           0.37513174408673   -1.66100411101400    1.20435503935887
H          -0.20970367967853   -1.68521615218534    0.30727341756760
H           1.09596762402526   -0.96292627425545    0.98792544850865
H          -0.19747529489482   -1.25592967155296    1.97187673378855
O          -2.70482768540637    0.01387958873758    0.91278395858068
H          -1.88602520467614   -0.42594706205776    2.49850573860978
H          -1.91873038452078    0.55878462942586    0.74182465199745
H          -2.75476032862141   -0.63116102300224    0.20318991988974
N           1.54530893178790   -1.06619277337693   -2.11338171628774
H           2.27923625820038   -1.65198530035566   -2.49137260468284
H           1.90577069502463   -0.60905484851463   -1.27801989695727
H           1.35885426196861   -0.32926611492396   -2.78319746119628
