    26
        -50.45364692  Gyration_radius:  2.37560332584 Dipole_moment: 2.956
 S           1.00826839367912    0.97609717088422   -1.11993867719562
O           1.50028066256236   -0.06240547019172   -0.24217662310561
O           0.31620809260813    0.49280514716216   -2.29191187504125
O           0.21996878282579    1.96266903209279   -0.37522445769103
O           2.29195015772924    1.74657613103875   -1.63805337340455
H           1.94942017069292    2.26777921627419   -2.35657627492070
O          -1.69394512343324   -0.84268251702883    0.76791873592827
H          -2.23011864845463   -0.20085816913844    0.22858832496708
O           1.98202844821197   -0.05393460458803    2.43317970390977
H           2.32939658493027    0.13085146433544    1.54700319518002
O          -0.40822642940881   -1.86019064640094   -1.34220718567706
H           0.36399717248015   -2.42573399382725   -1.40265489479278
H          -1.20055199154497   -1.33029045553033    0.07160239367625
H          -0.17079099372645   -1.02123995545141   -1.79004442322361
O           1.03073004578230   -2.30721246947747    1.33347273482310
H           0.08771829003104   -2.48396334173701    1.37189770721939
H           1.16935096739766   -1.68160630669624    0.60328338414498
H           1.78602797037022   -1.01159923118948    2.40746855936826
O          -0.29046326046016    0.91399569168130    1.85382718717435
H           0.61747096674768    0.54123636194297    2.19837225835804
H          -0.07357304599801    1.44684761221020    1.00382813515430
H          -0.88328894318974    0.10331719503355    1.48180913911763
N          -2.45905832076358    0.99365813892326   -0.97740876429759
H          -3.22408222093501    1.65641888866924   -0.99229071018292
H          -2.42893229189212    0.53204083211890   -1.87878669199939
H          -1.58978539622315    1.51742425895674   -0.89497750752404
