    26
        -50.44721205  Gyration_radius:  2.51047478174 Dipole_moment: 3.932
 S           1.23765430921843   -1.01310600241198   -1.40033722434250
O           1.55220624126450    0.35554079684439   -1.84955066355869
O           1.33858533210696   -1.10546850470644    0.04829121902287
O          -0.00239356646130   -1.50798307938800   -1.92530293880985
O           2.40385554336510   -1.89869977747969   -1.99162260300642
H           3.16563039655016   -1.40502290428391   -1.70726118446834
O           1.20399438275838    3.10512062178101    0.67716349151516
H           0.81654200125693    3.80128788567628    1.20991675826515
O          -1.87771538620417    1.08722077988937    0.10669486128859
H          -2.74207964798802    1.48810809311522    0.00330844018535
O           0.45842633636902    0.81525407036411    1.67601126458120
H           1.06474025265139    2.25091219113873    1.17415163289360
H          -0.47098404848195    0.81756064569428    1.40955973795648
H           0.87400507647990    0.10078313063096    1.14989422673037
O          -2.16077366933428   -1.37171824259636   -0.38387801930793
H          -2.01435731208364    0.08423578510615   -0.09802697274767
H          -1.48127674172241   -1.51377862914972   -1.07377335166357
H          -1.79560108917796   -1.83679786331366    0.40875647168083
O          -0.04005780485172    2.13847172520839   -1.32583167819001
H          -0.81204864310242    1.69376176541409   -0.81783989559890
H           0.49221866186522    2.64852588815622   -0.61254598993925
H           0.64359084559006    1.34443881307755   -1.62660948297165
N          -0.69625122654813   -2.44620588520541    1.60736959802006
H           0.13351378782581   -2.11718831108522    1.11382140438232
H          -0.62805745524033   -3.45299101380436    1.68392980367508
H          -0.66336659572260   -2.06226195629457    2.54371110471677
