    26
        -50.45364690  Gyration_radius:  2.3755679732 Dipole_moment: 2.954
 S          -1.62204536114645   -0.13239617826750    0.75763569978389
O          -1.07595950989587   -0.37550443352092    2.07244808947138
O          -1.10047423351524    1.04460828462662    0.09908168258860
O          -1.52278323671587   -1.30793157137748   -0.11279461986232
O          -3.17143978542401    0.13407738388333    0.95358147453857
H          -3.42741855513942   -0.55040088274658    1.56286562483140
O           1.95080022467135   -0.46870485668625   -0.37924541520005
H           1.79719836132550   -1.35434751311925    0.04764706047218
O          -0.83909272721326    1.64178830760169   -2.54065823558446
H          -1.41580790275522    1.65499024199584   -1.76139765400294
O           1.19766147798334    0.92931622989912    1.76984326717274
H           0.99228540709031    1.85963283295891    1.88044849427176
H           0.37695500291417    0.43876173297919    1.98560622103057
H           1.75116154953830    0.14955548342536    0.35832911680198
O           0.04197480837684   -0.66954919025121   -1.97639922669341
H           0.91281804170000   -0.52607688706374   -1.36969756015516
H          -0.65733064166577   -0.99393393601201   -1.29874380535880
H          -0.29323403133656    0.25537265524980   -2.31431698363397
O           1.06155977866125    2.50926229132165   -0.85967672714573
H           1.86768372167200    1.99675205417723   -0.76226432404193
H          -0.08021252761763    2.19781688684819   -2.27379148729704
H           0.38601423874365    2.07628566719544   -0.31194036541386
N           0.90771566781132   -2.49801529604948    0.96178176861612
H           1.02700080852173   -3.50139688648477    0.90092059637106
H          -0.04303195421959   -2.27545289015559    0.67318974749760
H           0.97800135758631   -2.23450949040266    1.93754755100033
