    26
        -50.45364688  Gyration_radius:  2.37562197546 Dipole_moment: 2.957
 S           1.08730096413273   -1.17944646340862    0.80676764438981
O           0.88944893411163   -0.59124946289895    2.11090258924429
O          -0.13340069707424   -1.51209828803249    0.10648699637472
O           1.97431773942339   -0.37418232197013   -0.03834401050685
O           1.83900872650957   -2.55449653603676    1.03984337500247
H           2.51126710244945   -2.32279580666040    1.67200857924261
O          -0.66605053107014   -1.70081706207611   -2.55201147880223
H          -0.34591039608470   -2.15092223269413   -1.75504514999886
O          -0.83680934733531    1.81392199838611   -0.42419578062405
H          -0.06476240124316    2.24986825777619    0.02765793388448
O           0.56809512417305    0.43542265830904   -1.96076281173268
H          -0.10887542382387    1.03107359715284   -1.38299647155969
H           1.23281515076991    0.09693398514985   -1.25570485078182
H           0.06725336982575   -0.40656054971432   -2.31039992144315
O          -2.59080725919144   -0.74268989736675   -0.94904082593205
H          -1.85211750144120   -0.99629656169200   -0.37133208785021
H          -2.69664619229999    0.20775199643001   -0.86277673046475
H          -1.58366833955136   -1.45310140697117   -2.32230689350499
O          -1.53586877859446    0.36913855954444    1.71239279680537
H          -0.64890172527424    0.03563120360678    1.96302227629574
H          -1.22178151595556    1.27759163692130    0.30392114710920
H          -2.13883338666877   -0.37041367845689    1.80907138595730
N           1.34972918002793    2.27608719560831    0.99330026338328
H           1.06503193831073    2.17570599086544    1.96042035017415
H           2.06166215888748    2.99444244743183    0.95118584456737
H           1.77850309704370    1.39150073080784    0.72793581073928
