    26
        -50.45364640  Gyration_radius:  2.37560702574 Dipole_moment: 2.943
 S           1.13795899378345    1.13432789454922    0.79941348168193
O           1.37731721529407    0.44445849786448   -0.44869805719300
O           0.22485451362198    2.24920176570253    0.70319295443718
O           0.75621797253156    0.19101372573314    1.85477641881168
O           2.53810207768036    1.73337903574009    1.23669338244202
H           2.29946653318185    2.34457254876785    1.92576697282124
O           2.10140721237791   -2.13164356401587   -0.95952174760962
H           2.41519034201910   -1.23777503423431   -0.75562854823849
O          -1.78307163949497   -0.89228937486745   -0.43025032178000
H          -2.15566287623278   -0.50361197647530    0.40650530318750
O           0.17766697086463   -1.96064396169818    0.68730201726781
H           0.45973453802054   -1.15113596198951    1.25186749051739
H          -0.66254763928235   -1.58673462344207    0.13806251678604
H           0.96146710189071   -2.13962281586392    0.02802328754940
O          -1.07527316584368    1.46989825981766   -1.45714662052151
H          -1.52851055409005   -0.08609858002341   -0.93222053976014
H          -0.64200504968912    1.85300586874462   -0.66575569742729
H          -0.51288456514281    1.68602651438910   -2.20340217980453
O           0.42146916636609   -0.92858577534765   -2.66657037956342
H           0.66875858922115   -0.25885609414042   -2.00750049870750
H           1.62386136859877   -2.02031457610954   -1.80603253439209
H          -0.52140739277829   -1.08076738665914   -2.56685723663279
N          -2.13589444251710    0.52718818355760    1.77530812874989
H          -1.14665869081701    0.50734684045401    2.01562955624575
H          -2.66729133152592    0.36966225953028    2.62237527619127
H          -2.33226524807128    1.46799834999389    1.45466759487697
