    26
        -50.45364696  Gyration_radius:  2.37555404211 Dipole_moment: 2.954
 S           1.73577514752957   -0.24764945417331   -0.38557996915158
O           1.86908017870053   -1.34404453290279    0.54504563879022
O           0.64292649441295   -0.38466946164721   -1.32258971007763
O           1.68833920692239    1.05301730079012    0.28936063848409
O           3.05556624425522   -0.23488829360022   -1.26194811639825
H           3.74124769074127   -0.35379930636458   -0.61310957064157
O          -1.67186418735701    0.16265441247477    1.16047734657212
H          -1.08236681784701    0.27591641498291    1.95412014598476
O          -0.82360820780833    1.48977226984395   -2.63753455422733
H          -0.02357367403092    0.94212706740895   -2.63842956517639
O          -0.62718692649026   -2.19606703414614    0.46342291880682
H           0.32251874305773   -1.96849571388124    0.54724151202579
H          -1.40901089399818   -0.72777010892516    0.83778224773885
H          -0.71021677080468   -2.71370890479099   -0.33968510575914
O          -0.60181476890437    1.99170047965099   -0.16048771570916
H           0.37291310608602    1.72235954540799    0.01552657963056
H          -0.74974583650584    1.88192140939786   -1.18428605628125
H          -1.15513130829423    1.23423709338027    0.35622456523175
O          -2.07019025922321   -0.74048034585018   -1.82420405215591
H          -1.54978875600430    0.83483940093827   -2.62748685312041
H          -1.13214786016211   -0.85144178595503   -1.59706209281598
H          -2.55623863632835   -0.72665195446098   -0.99621751895128
N           0.41613149088434    0.25459316774660    2.78401633084014
H           1.04528054644046    0.57649533967534    2.05101808147558
H           0.65673840359074   -0.71355638018257    2.96084900387942
H           0.61636765117430    0.78358939518205    3.62353586102055
