    26
        -50.45364689  Gyration_radius:  2.37562819554 Dipole_moment: 2.956
 S           1.17655561929128   -1.17359851935732    0.67991107777262
O           0.60738708229268   -1.09830005763418    2.00512998910374
O           0.22210423000721   -1.45908739608059   -0.36822832049130
O           1.97937799867241    0.00815469202084    0.35077129519049
O           2.18482543532013   -2.39553880229589    0.68932163552233
H           2.65379923541029   -2.27566523457175    1.50841489779369
O           0.24376744756450   -0.83881926968157   -3.01468244938309
H           0.51429269044270   -1.46714667170032   -2.32756447689880
O          -1.16209996657447    1.67735706323765   -0.08155921162345
H          -0.61511491471564    2.06429354894012    0.65415410302179
O           0.79181186047979    1.15637696228033   -1.54652197613485
H           0.58332763683533    0.40626749791310   -2.23639794844077
H          -0.10335603414561    1.39804347276702   -1.01071111115932
H           1.37937930378873    0.72245924669982   -0.82536644738752
O          -2.11442251105308   -0.82056528955688   -1.73774599106569
H          -0.73249018005949   -0.84514973254291   -2.95970691572088
H          -1.45359671557297   -1.12006737390839   -1.09167924716181
H          -2.46288080135259    0.01274331802234   -1.41194099969927
O          -1.86481731389365   -0.49585148716517    1.30572204093385
H          -0.98413369150550   -0.73478887565032    1.66352284530209
H          -1.53059108900632    0.87063933921276    0.34203854064889
H          -2.27642461179350   -1.31781893772843    1.03225850718613
N           0.55069860876269    2.01118179379265    1.90829948030775
H           1.22311613811211    1.35465139925551    1.51647001353335
H           0.12823755978894    1.54583582338984    2.70294778994091
H           1.06124700293047    2.81439351031560    2.25314288890448
