    26
        -50.44195667  Gyration_radius:  2.44542420799 Dipole_moment: 4.532
 S          -0.30600058663705   -1.02734774389047    1.58660223108020
O          -0.29087292677829   -2.46571956345029    1.44741490473917
O           1.06298558561417   -0.48219318159143    1.65415699456259
O          -1.09974205751863   -0.36057986380929    0.58294163547795
O          -0.96332748535874   -0.71552883507578    2.98516552551279
H          -0.52194002445295   -1.31120220130447    3.58270896595387
O           0.78747996931787    2.51150046266863   -0.96518680049592
H           1.08854396976167    3.09092559127490   -1.66658665222020
O           0.59244489779010   -1.15289948093415   -2.22807904168269
H           1.13011760635782   -1.73002072034511   -2.77347346094438
O          -1.11740845394476   -2.66441722960014   -1.01645701424883
H          -0.78621397323836   -2.73973912244218   -0.09071822081036
H          -1.93520512120264   -2.16567107513816   -0.93984320399353
H          -0.06713938317886   -1.75357954044091   -1.76034009331454
O          -1.19886059703167    1.00966882352730   -1.71992760597529
H          -1.35179828484821    0.59216857895421   -0.85187534969916
H          -0.06774875306647    2.09385160126288   -1.26920523028528
H          -0.76679333016269    0.32916191062316   -2.25069093921189
O           1.90571243094425    0.26290211282090   -0.51510132593915
H           1.54702630297622    1.21575782248462   -0.64138736402519
H           1.56776174665227   -0.06471998110199    0.48033110957016
H           1.41385649346342   -0.31780484133037   -1.18810644376407
N          -0.24926918668262    2.16093994069879    2.06948867245897
H           0.05611930813298    2.56613237750659    1.19197130317115
H          -0.96430357418630    1.47774296449758    1.85181966192011
H           0.53457545728090    1.64067119413226    2.44437773216158
