    26
        -50.44195660  Gyration_radius:  2.44549710676 Dipole_moment: 4.534
 S           0.54823635761573    1.79152436024689   -0.39637823681265
O           0.01566860169796    1.77177915996100    0.97910295543179
O           1.96920810919628    2.05442839550167   -0.40437118232553
O           0.17810130632824    0.60642949041941   -1.13159660017759
O          -0.14208970502187    3.01721897293049   -1.10813540398021
H           0.26939854909507    3.77590658368090   -0.70590754214800
O          -2.14278077678497   -1.57970420963730    0.87992753290834
H          -2.50453968206451   -2.39812741416856    1.22295002219942
O           1.72641119188716   -1.79443660336879    0.66642328438942
H           2.43513733709632   -2.13468648485336    1.21556145803184
O           2.83363967472152   -0.29666586516277   -1.12439375709707
H           2.32770754510663   -0.39969930950808   -1.93484759750627
H           2.65311661856529    0.62892078079950   -0.83619154469604
H           2.17040969754273   -1.21142469278840   -0.02466214588649
O          -0.09695792673506   -0.47578672840097    1.93136943710544
H          -0.05873471803606    0.55396461657498    1.54336817255401
H          -0.98070329273937   -0.87622037828466    1.59802352224367
H           0.64313841322333   -0.98597756360757    1.45808439305725
O          -0.50562981310425   -1.98617882626905   -1.10130154174609
H          -1.66383091080405   -1.79762747065628    0.03060101539116
H          -0.34462537607154   -1.04517230946596   -1.30080136980395
H           0.29793897733587   -2.28805031812175   -0.66012762134886
N          -2.64922286801394    1.38112675097675   -0.29623625757187
H          -1.93845552192725    1.32565193980154   -1.01530156843477
H          -2.79481434251626    0.44163766043191    0.05541082953758
H          -2.24572745557540    1.92116944297447    0.45942972669467
