    26
        -50.44195666  Gyration_radius:  2.44540659842 Dipole_moment: 4.532
 S           0.00837914197894   -0.82840256134739   -1.72633888789350
O           1.29933317376244   -1.07499735308448   -2.32731202314661
O          -0.32258824809342   -1.86190366986400   -0.72727230676986
O          -0.13030009004174    0.50267002661594   -1.18695868460271
O          -1.06117929460930   -0.98087675185551   -2.87438190533621
H          -0.81442323460050   -1.79079378627787   -3.31012389254292
O           2.20387684843419    0.47204745815526    1.25084056221049
H           3.04019946001598    0.20455024905184    1.63635706009109
O          -1.52863797852054    0.42071562565622    2.31206991910135
H          -1.61833140579205    0.67872426473108    3.23061665188725
O           2.64711584832991    0.88453182831035   -1.26107656341757
H           2.08685524328295    1.61622181430975   -1.53340154754902
H           2.38960986630340    0.62716750189641    0.27305507599513
H           2.26993369086055    0.09923215919376   -1.72305251805552
O           0.27478977931782   -1.21644675620915    1.55260977276555
H          -0.00555375378628   -1.54922057535919    0.54117834491520
H           1.05627258055467   -0.57789564053430    1.43585109303034
H          -0.50904407304538   -0.65118057526362    1.89706320652861
O          -0.10548703956072    2.12138451715567    0.95072510425127
H          -1.12052917952643    1.19093949578335    1.82381328727532
H           0.79798594864227    1.90967451582801    1.21604868555483
H          -0.22151346204128    1.68746051909910    0.08501239284541
N          -2.93285341924488   -0.44925201583216   -0.45895195144377
H          -2.78326596871545   -0.13653265376040    0.49356514146079
H          -2.32858223942727    0.10342902358953   -1.05461441423209
H          -2.59206218447520   -1.40124665998760   -0.51532161291925
