    26
        -50.44195660  Gyration_radius:  2.44546862127 Dipole_moment: 4.534
 S           0.71479959119985   -1.38884319049807   -1.10784444411924
O           0.97002261280838   -0.09782576271823   -1.77422604954357
O           1.94648950936146   -2.00561763366766   -0.67092503554973
O          -0.27037830461899   -1.26609026954762   -0.06075922723104
O           0.10503555658513   -2.33175479744923   -2.21442211187442
H           0.84449612993450   -2.52411607749413   -2.78269074475217
O          -1.72436677791235    2.21037117558206    0.04644649967184
H          -2.06015818397373    3.01217554295980    0.44979471874440
O           1.29072113652417    0.83751512216082    2.06810325891722
H           2.06349634996653    1.20566016935453    2.50043984150210
O           0.77672767588992    1.81451561731712   -0.26533777780946
H           1.01218561087703    1.43777095127959    0.64825127702640
H           0.87881578598563    0.98160142552504   -0.97816320518245
H          -0.22254153354770    2.04443829891451   -0.23256809895568
O          -1.49003083000069    0.27173759178703    1.76617032212306
H          -1.21454482038136   -0.40787409130063    1.12316278005476
H          -0.68438396795836    0.50259900076847    2.24481953652504
H          -1.81837401534177    1.47625618451473    0.71761743398320
O           1.67966519445358   -1.71169911143018    1.90507639329129
H           1.91845381826891   -1.87777639258510    0.96286307499528
H           1.45593223031589   -0.15434816432357    2.00863146398110
H           0.82559857772634   -2.13803354732740    2.01585347594543
N          -1.96813791333961   -0.02482720745789   -2.26708084672901
H          -1.11306255959752    0.17697553943020   -2.77075889446197
H          -1.76304056829685   -0.81336386470983   -1.66581019827447
H          -2.15342029490901    0.77055347091680   -1.66664341229033
