    26
        -50.44195659  Gyration_radius:  2.44546958891 Dipole_moment: 4.535
 S          -1.31269390051436   -0.28948430122386   -1.36389696286454
O          -1.79085696508664    0.80320662282709   -0.49596919511647
O          -0.99707307631028    0.19352749549033   -2.68882851209601
O          -0.23723492043175   -1.03011897865315   -0.74998094784597
O          -2.53016299262669   -1.27858477066526   -1.52168808840190
H          -3.13647189744068   -0.80586172327501   -2.08351672958294
O           2.13828986607291    1.35391297828450   -0.48909675606652
H           2.60213820869396    2.14071641844405   -0.78134320669083
O           0.40391248584890    0.15719834322371    2.77016726379213
H           0.92636582238481    0.40060612948538    3.53575842648430
O           1.59964010034896   -0.01744011490561   -2.61174951776084
H           0.63824253902129    0.12708198435650   -2.77664702830523
H           1.93248575424231    0.83037081999788   -1.32466307942937
H           1.66652736014318   -0.94649787368299   -2.37550465001369
O          -0.01731423585543    1.79593630977306    0.86057206462599
H           0.82670946488846    1.65229183994412    0.31375957814341
H          -0.84522102806430    1.38138579206201    0.26475003820233
H           0.07057493798958    1.19568869905655    1.68788446797391
O           1.81947324754473   -1.07790918410288    0.96979475873590
H           1.07895459640389   -1.26727179256286    0.36398356383042
H           2.30839719185528   -0.36031856271105    0.54850590872236
H           0.96376879642690   -0.44904971234921    2.20689546168845
N          -2.20242304909691   -1.31172022661788    1.56283448343710
H          -1.48936367807070   -0.97521955310572    2.19985806917691
H          -2.69050989566203   -0.49840000499877    1.20809415980211
H          -1.72615470270600   -1.72404661408879    0.77002643956352
