    26
        -50.44195659  Gyration_radius:  2.4454816121 Dipole_moment: 4.534
 S           1.66751153434061    0.89565631870282   -0.29067583579491
O           1.47432497175261    0.75395527523830    1.16481812927490
O           2.77240876786591    0.08750764976587   -0.75379978375473
O           0.44276317209840    0.66752340519059   -1.01863880256152
O           2.07758459306410    2.39953066332751   -0.52655874776653
H           2.96484775118066    2.45011900132244   -0.18458493241292
O          -0.18808429957697   -2.55850467702927   -0.25169497471704
H           0.06886875060458   -3.45803840658119   -0.04093114474399
O          -2.46584871972680    0.15974203461139    1.32503421682588
H          -3.27955288332126   -0.23120726264745    1.64659008151737
O          -0.19794018201744   -0.92891371874280    1.75033287950409
H           0.56533904175181   -0.16616117245368    1.53142223296705
H          -1.10524408228764   -0.45385180213141    1.68977155170025
H          -0.17026408238538   -1.58900319492336    0.97862802087638
O          -1.96389288796458   -0.50851555247290   -1.13917775540826
H          -1.62989909918603   -1.41015493951888   -1.05567979454188
H          -2.42606567753311   -0.00107215448973    0.33976786570888
H          -1.16793008985584    0.04613388170208   -1.23945885917441
O           1.44809978817042   -1.72977535339230   -2.07169768918200
H           0.45788105117756   -2.24710564407441   -0.95908258402723
H           0.95205254830736   -1.15479984069534   -2.66058668500107
H           2.07185780446148   -1.12588127743124   -1.60412179108169
N          -0.67119094237996    2.79891726845299    0.85413026114852
H          -1.43858140671827    2.18006888951077    1.08995676399800
H           0.08567256592020    2.58931185645241    1.49345977064461
H          -0.34471796774653    2.53451878229688   -0.06722235399634
