    26
        -50.44195661  Gyration_radius:  2.44546675275 Dipole_moment: 4.532
 S           0.23683933672911   -1.89075308182138   -0.18935896538841
O           1.55523421098727   -1.29288709286587    0.09419348083463
O          -0.20951613774553   -2.71925391451977    0.90733312850979
O          -0.72849858876484   -0.89539407970920   -0.58851157900809
O           0.45482882714512   -2.85040116785862   -1.42102311079284
H           0.94961975071870   -3.57859422367212   -1.05818435356434
O           0.86810924796652    2.50284421333064   -0.91741702924629
H           0.93523814772840    3.45548649557562   -0.83793828206852
O          -0.90321561428103    1.00627440437646    2.19458061080448
H          -0.87835051432847    1.14590385473785    3.14300134006451
O           1.40454716062694    0.95560193223525    1.03904530126537
H           0.51128848290364    0.96478909934065    1.52285317309902
H           1.51807017730715   -0.05635141544301    0.62022338711110
H           1.30415313629672    1.58887392272608    0.23815501148393
O          -2.14609667088536   -1.22597710754368    1.80908507551302
H          -1.44205411833749   -1.87986459041124    1.58747879353958
H          -1.38716273476800    0.13342409644260    2.05825971788139
H          -2.65323003200763   -1.13364375722518    0.99808078806668
O          -1.55701408687860    1.65355430328866   -0.50700504090895
H          -0.10359168628731    2.27048134994785   -0.91351145567431
H          -1.37584251571875    0.71610745663171   -0.70592255926622
H          -1.64082161594533    1.69236544453182    0.45370697083126
N           1.38637784866492   -0.16288793364930   -2.65809641393211
H           1.32329694046885    0.80637358162773   -2.36812996173084
H           2.07725831886098   -0.60548607614449   -2.06442397447333
H           0.50053271958498   -0.60058571389181   -2.43647405296392
