    26
        -50.44195668  Gyration_radius:  2.4454217016 Dipole_moment: 4.533
 S           1.31712078776721    0.85373911861778   -1.09684351976354
O           0.70910042941766    1.88213843820712   -0.23165943067960
O           2.70201379063283    0.62927757101414   -0.75014531517275
O           0.52892246967794   -0.35444331799073   -1.12876541996558
O           1.30771731958480    1.45600419129323   -2.55371258679142
H           1.97354869215889    2.13607432068206   -2.52379148425620
O           0.68723027963275   -1.32882836071848    2.09914044057882
H           1.12039578262794   -1.41504856897724    2.95034022314793
O          -2.68978366774640    0.06324754684711    0.78807809083290
H          -3.40520904840313   -0.19004984647335    1.37317743273273
O          -1.23006210889216   -1.97323817742107    0.08619024169267
H          -0.65227463239933   -1.48297764795827   -0.52783140789685
H          -0.68626399234139   -2.13005103561998    0.86796250135939
H          -2.28220711788018   -0.77711338186064    0.43325223071061
O           2.49806603756408   -1.74576284048135    0.30380585897590
H           2.72052046153080   -0.85330182842141   -0.05169043696827
H           1.40311307080101   -1.49110898681604    1.40933180479590
H           2.07355614235395   -2.19829049976958   -0.42997621403902
O          -0.47090186408266    0.94162925911767    1.69037530375345
H          -1.40657802027139    0.69450719301257    1.34975358087237
H           0.00657599999856    0.06364641105072    1.87275252481224
H           0.05349941434996    1.40755641635520    0.84175879848350
N          -1.72655832018427    1.53953272283568   -1.91397889407139
H          -1.19626447263089    2.29596072623573   -1.49893238445535
H          -1.05159753401594    0.83243545941154   -2.17832254226813
H          -2.30367992925497    1.14446510782581   -1.18026938642074
