    26
        -50.44721161  Gyration_radius:  2.51034988133 Dipole_moment: 3.933
 S           0.36297683693546    1.15765742632775   -1.74672865109091
O           0.90595215192866    2.13204737353344   -0.78243127855666
O           0.88986990546649   -0.17091602886417   -1.47380833124036
O          -1.06743342183752    1.20136399972643   -1.84822054753770
O           0.96289969303256    1.60524157421543   -3.13725786519281
H           1.88356694888991    1.69343333765749   -2.91481728484176
O          -1.33622792846121   -0.07919819783138    1.71109861481413
H          -2.02989922106323   -0.01199998392919    2.36898909072624
O           2.22159364530445    0.75646487478244    2.45457804675843
H           2.25255434711439    0.44989264586682    3.36205451656934
O           0.17552170822294    1.97569148321107    1.54793187646931
H           0.45706194448497    2.10110151596291    0.50226941386447
H          -0.48989711363077    1.19637556094204    1.58859427923656
H           1.03381632404260    1.61909923527229    1.98179754698514
O          -2.47199457426977   -0.59190909166029   -0.48303877121811
H          -2.02610204729337   -1.40733322776076   -0.82074526526479
H          -1.81995413360223   -0.28801551506567    0.82282785816081
H          -2.12405427998749    0.12147193267075   -1.05572502187270
O           1.18489668282542   -1.13804279980575    0.99462532731264
H           0.26419524943082   -1.08086715605135    1.28426102333553
H           1.17957860528967   -0.83366788127110    0.06335031981103
H           1.99881549179473   -0.03608551928700    1.89016799732524
N          -0.83170869776431   -2.49576217679716   -1.45848160230179
H          -0.14735748049928   -1.75721657363487   -1.62115333309435
H          -1.04067716190513   -2.92211188230966   -2.35216564674588
H          -0.38799349444908   -3.19671491590159   -0.87797232240905
