    26
        -50.44195679  Gyration_radius:  2.44517341345 Dipole_moment: 4.532
 S           1.15825745823930    0.71787277602129   -1.34501031047229
O           2.34914003418957    1.39672824290928   -0.88709898979712
O           0.93742370735923   -0.55374236848915   -0.69988023485105
O          -0.02550479932689    1.59307902799467   -1.25164931720029
O           1.36260051997207    0.43216562606019   -2.88181614176525
H           1.66967263700571    1.26345550095740   -3.23030308338337
O          -2.61488928201452   -0.86741367727873    0.52113320983176
H          -3.32032715102367   -1.10856612018114    1.12325301147515
O           0.47119846322340    0.40047236679631    2.50145255675785
H           0.62499610737981    0.96541435879358    3.26094770188364
O          -0.35393862560265   -1.98196181037825    1.16588878070486
H          -1.83243241511054   -1.45339664171809    0.72800987655252
H           0.15087791443742   -1.64835174831174    0.40096025182446
H          -0.05472189583683   -1.44899119321059    1.91281058205723
O          -1.27918558188992    1.28508077299512    0.82327837804329
H          -0.58329351091182    0.96915309689363    1.49278042157112
H          -0.74205554673777    1.45959261942511   -0.12152466759543
H          -1.90131282445362    0.48619391711807    0.65725127583827
O           2.75594438609821    0.09565220452377    1.33417270757108
H           2.77957693290092   -0.79779612992501    0.98123927936765
H           2.71819441330591    0.67513924103508    0.53707561712275
H           1.36742013483835    0.29139290824212    2.05462759019797
N          -1.51341704347730   -0.66302111299742   -2.50557920047673
H          -1.45799012653469    0.34555332465258   -2.57877152759883
H          -0.57606290897644   -0.98320992988914   -2.29498577963765
H          -2.09017097705073   -0.87049527203832   -1.69826199802069
