    26
        -50.44721129  Gyration_radius:  2.51038987647 Dipole_moment: 3.940
 S           0.53201744312234   -1.46420812345786   -1.45012955888680
O          -0.35219494193473   -0.32827156173078   -1.66217184241890
O           1.90265548642303   -1.00053354246511   -1.16579499256039
O           0.04221861490560   -2.40394087493121   -0.48304183601849
O           0.65021409148098   -2.21068868528308   -2.83673897623043
H           1.12248675218852   -1.56325107406376   -3.34923706370459
O           2.27115512317146    2.52170096817321    0.08704033265715
H           2.32699426837029    3.26775663132464    0.68618428879675
O           0.06238139066172    0.33400124458717    2.14601959260854
H           0.10963730239683    0.30688461356124    3.10286134869159
O           2.31977727518592    0.12937877007289    0.96429203486467
H           2.16444587627785   -0.43214616326892    0.04223815558789
H           2.45344434642704    1.09152881345521    0.63470730126069
H           1.42488576683159    0.13854546762790    1.46510002438035
O          -1.53273677407236   -1.49359462532247    1.45169035036030
H          -0.59275546704201   -0.41967899364338    1.88234367083373
H          -2.20810493196278   -1.04513303242983    0.88542905704088
H          -0.98874539793562   -1.99942464210321    0.81440097005092
O          -0.24384666516544    1.89424488261362   -0.19132502498394
H          -0.30107581928477    1.14833224729756   -0.82392378060287
H          -0.40948951187785    1.50236621685891    0.67695158147516
H           1.30782698022215    2.41468963037669   -0.15063824372001
N          -2.96830657451056   -0.20633932941604   -0.43206340101002
H          -3.22302965108829    0.77109381353818   -0.36131602742844
H          -3.72418938931455   -0.68924007311940   -0.90065426075674
H          -2.14566561347484   -0.26407255824781   -1.03222368028543
