    26
        -50.44195643  Gyration_radius:  2.44508321148 Dipole_moment: 4.533
 S          -0.66096570604232   -0.35687054428116   -1.76098803416066
O           0.20321869775849   -0.01209557312908   -2.86678898318755
O           0.01179553796385   -1.08034738284300   -0.70935880639378
O          -1.36768179335168    0.83034668334557   -1.24441961978679
O          -1.77884472889903   -1.30626209059740   -2.33938811792660
H          -2.07294641397065   -0.85955427040043   -3.12725877348946
O           2.24632766992115    1.21386719613869    0.34854728165617
H           2.84541102033874    1.95179629738170    0.22132850395881
O          -0.75009014936672    0.39129993137260    2.67272886889241
H          -0.56781222446580    0.68316646434721    3.56714426735178
O          -0.23209723205583    1.86550752252450    0.65597655713770
H          -0.53489020592898    1.33937248305355    1.48315713775184
H           0.74823856474128    1.63734993883349    0.51694186677170
H          -0.77352840363302    1.43474446950844   -0.19972782939267
O           1.17980385981455   -1.06009854799433    1.70361924153649
H          -0.05595477477291   -0.28604481886705    2.43241854522106
H           0.73850637765439   -1.27168421605019    0.85995375922435
H           1.85081248660159   -0.40489087205320    1.47585638191996
O           2.51927348099360   -0.32075989360564   -1.71221242173067
H           2.41574999793601   -1.22694417318638   -1.40976369198162
H           1.72194118580847   -0.15298588849467   -2.26773500248578
H           2.36033848879816    0.62533013108032   -0.46093232431651
N          -2.74053881030673   -1.06891070288537    0.59471871261003
H          -2.32547877612583   -0.71212573143238    1.44790998265807
H          -2.95988442462694   -0.26832772279404    0.01456267459624
H          -2.02070373478213   -1.58487867897593    0.10370982356548
