    26
        -50.44195603  Gyration_radius:  2.44510859854 Dipole_moment: 4.530
 S           0.85039893605163    1.70495892385429   -0.18735253816965
O           1.09312323855033    0.46286150588022    0.50566814355987
O           1.69437238158535    1.89295121366165   -1.34528242559625
O          -0.57441755772710    1.87117355929413   -0.53114076866066
O           1.19136515997521    2.87315910858500    0.81497146086401
H           1.18338220783650    3.65282080537365    0.26841569335423
O           0.20997397589344   -1.79140369534136   -1.84042131067004
H           0.11908603800603   -2.09946409774180   -2.74399068310502
O          -2.11903724571967   -1.35925574628809    1.23370632616528
H          -2.70414284948477   -2.11359773019823    1.31715454997271
O          -1.68953726141616   -0.24737533903421   -1.02205904173737
H          -0.94772114171306   -0.84494571176769   -1.37568427081928
H          -1.96383649649079   -0.63712981318914   -0.11343617995441
H          -1.22628590522872    0.72863853099074   -0.81334399923455
O           0.37200371468466   -2.07229897254982    0.99515164872938
H           0.42775815554372   -2.36332049866735    0.07666536430505
H           0.73917593924852   -1.16870147581286    0.99519445856871
H          -1.18230554101181   -1.69748088455863    1.31385035011235
O           2.48082556566516   -0.56576489079657   -1.70528468177879
H           2.84629841727744   -0.73538708083901   -0.83294314375791
H           1.09617777387962   -1.31432793852491   -1.80115335750502
H           2.25727110252775    0.39460442601843   -1.69739511027203
N          -1.08709451786494    1.47583541922136    2.37642111479825
H          -1.56584483442010    0.58723635163963    2.28365228335793
H          -0.10195706487212    1.30424657946599    2.21681410320032
H          -1.39903219077601    2.06196743132514    1.61182199427245
