    26
        -50.44195663  Gyration_radius:  2.44513801375 Dipole_moment: 4.531
 S          -0.58393888326568    1.81510829412105    0.17400817523301
O          -0.39378174613623    0.85550520103932   -0.88660319271590
O          -1.97161598724170    2.02546231774177    0.51831976313318
O           0.21800143211733    1.48101635319946    1.36617993260876
O          -0.03134395798734    3.19797360461643   -0.34319887225815
H          -0.32932468298406    3.82251814747151    0.31088237739632
O           2.24795361740439   -1.67584902768377    0.01542694668002
H           2.65555217502682   -2.54150561231711    0.06901473936511
O          -1.58595507406016   -1.95708237177746    0.54300862901672
H          -2.17345501322621   -2.44244237198046    1.12516033030170
O           0.23416363675179   -1.64223850890815   -1.63193417388031
H           1.60174659585801   -1.69679486521283   -0.74634836422259
H          -0.46786932999621   -2.06859462908828   -1.12512472971271
H           0.05280518216273   -0.68681376431251   -1.55781528582729
O           0.48062147965843   -0.92618403379580    1.69585699103581
H          -0.34965527684244   -1.32984155180691    1.27154862810235
H           1.27035812402972   -1.20469000446451    1.10309542633003
H           0.38322276075625    0.16498258326976    1.58819030246983
O          -3.00892056875357   -0.10634198993006   -0.56432159892702
H          -2.75571013507587    0.72670388972540   -0.10129410526207
H          -2.68224966815949    0.00765649598489   -1.46079344357635
H          -2.15103632703529   -1.23856406112918    0.11987835905861
N           2.55546382434752    1.49804126373441   -0.48054365943158
H           2.75443146981749    0.50663476899561   -0.40989556533273
H           1.71822945507090    1.59691073662946   -1.04155465128726
H           2.31230690776330    1.81842912587747    0.44885703170350
