    26
        -50.44195660  Gyration_radius:  2.4451144879 Dipole_moment: 4.532
 S           0.43416949207616   -0.74496449145779   -1.70943974666222
O           1.83069937019874   -1.00654919443740   -1.97337300465401
O          -0.00671308226659   -1.22239900566724   -0.42120657677590
O           0.11076705069302    0.68074150293412   -1.90597133200851
O          -0.38749091875383   -1.52797703695561   -2.80350494768836
H           0.05136032887490   -1.30893664711500   -3.61966816164523
O           1.85352195685455    0.67035853566953    1.66014326653781
H           2.64425299744058    1.15384726455021    1.90632986239541
O          -1.94535252284785    1.42461324133477    1.43048099743718
H          -2.22812230482934    1.94163728117473    2.18618616666073
O           0.20120187849303    1.97382269978674    0.16573538339867
H           0.15381195372632    1.43088454528154   -0.79052356521070
H          -0.71078738338825    1.84242377434321    0.61711757565200
H           0.87707852379198    1.47948548591498    0.74119262722288
O          -0.60763049331089   -0.69223017865958    2.13725009306349
H          -0.50319544348496   -1.05601775530321    1.23834787416534
H           0.25997206008279   -0.33478177569532    2.36301444426691
H          -1.59068798499203    0.55743049075914    1.77768890623399
O           2.64508232527190   -1.47519311672003    0.45764362894466
H           2.48298036823558   -1.30989595578967   -0.50092809630850
H           2.17519416138050   -0.16108112907350    1.19114277028031
H           2.02915471877487   -2.17562875151635    0.68872264075962
N          -2.69911353385134   -0.10818068037648   -1.30780712559952
H          -2.76839547655756    0.39938039232806   -0.43311589527398
H          -2.19207619723688    0.48372404675640   -1.95440541337467
H          -2.10968185437613   -0.91451352206539   -1.14105236181777
