    26
        -50.44195689  Gyration_radius:  2.44512652021 Dipole_moment: 4.535
 S          -1.35726799561179    0.78990582926826    1.09529477185787
O          -0.91078203255125    1.62003333601500    2.19067669787775
O          -0.69674383473113    1.08190051464045   -0.15385975117298
O          -1.27102267088431   -0.64179079574360    1.43991574711365
O          -2.89120591450817    1.09198904218479    0.89347342866368
H          -3.25181098855685    1.04375860963663    1.77336143445113
O           0.53947116736354   -2.07085493370659   -1.81048861408585
H           1.14635502799912   -2.62805275663120   -2.29995277374709
O           2.49531963570555    0.27409203824185    0.58458439495608
H           3.24729593970484    0.19476212945422    1.17437622566693
O           1.19131140503733    0.44436290882967   -1.94786458467654
H           1.93057807972695    0.51095801996618   -1.33099115020232
H           0.75108528332940   -1.12240676203388   -2.04290154939422
H           0.42070027954787    0.78113381717109   -1.45388992813058
O           0.81241430065194   -1.67984233245651    0.69571878445513
H          -0.13643454198455   -1.25145668840959    1.05332378029247
H           0.65792888805112   -1.94123355151854   -0.28437986713248
H           1.48342652886325   -0.91700002980482    0.68459488879340
O           1.32375293647656    2.49917090196632    1.17778981590036
H           2.04684307398364    1.14286040086237    0.82711930526857
H           0.98104531072305    2.86844882182031    0.35948130074315
H           0.52008255953239    2.23973877361490    1.68710085728836
N          -2.49248756446684   -1.13079763582250   -1.23245097646685
H          -1.68102860957541   -1.58301180277290   -1.63811866162633
H          -2.57874569572197   -1.47323168894230   -0.28326744952224
H          -2.28008057810465   -0.14343614582977   -1.15864611717199
