    26
        -50.44195667  Gyration_radius:  2.44512206775 Dipole_moment: 4.534
 S          -1.06660792679615   -1.48500642725702   -0.56690401149935
O          -2.49921347135088   -1.29547392285707   -0.57448662919492
O          -0.33966957491958   -0.40104892302875   -1.18205032539770
O          -0.57296943586429   -1.77454827344708    0.79267686359804
O          -0.77684243409358   -2.78165812575586   -1.41551622015031
H          -1.39757565371540   -3.41959280960138   -1.07743448615871
O           2.51127392479574    0.74418168658960    0.99840432669644
H           3.10110313409897    1.37190770420114    1.41841602165753
O          -1.10009999634194    2.15856392310915    0.87878243982166
H          -1.67798693004835    2.64031315991317    1.47341445199933
O           1.10810783402667    1.83785078576506   -0.90031720982780
H           0.43047449825000    2.32553739703736   -0.41615021725999
H           2.13498627167255    1.18607244894254    0.18506363651542
H           0.66769964987319    1.01782630602638   -1.19167345257970
O          -2.58967218937904    1.26794330962849   -1.03542911786971
H          -2.70595218320499    0.30704787766765   -0.84648828896285
H          -1.69183185847353    1.81530467714531    0.13944041425280
H          -2.06635329325010    1.29329550863317   -1.84094403377647
O           0.21047667106006    0.21985795295733    1.96782531243519
H          -0.32990872852032    0.97885560981853    1.56254166225953
H          -0.13660734423154   -0.70245847450197    1.47786121615551
H           1.17935295273718    0.36129734994663    1.66104250503451
N           2.09834407054186   -2.09101148322997   -0.48672260265026
H           1.45630714707825   -1.74775967067545   -1.19058548439953
H           2.52376936858564   -1.28228738469554   -0.04812945962488
H           1.52939547747207   -2.54501017233473    0.21736269892844
