    26
        -50.44195690  Gyration_radius:  2.4451891287 Dipole_moment: 4.535
 S           1.19166190216467   -1.48460094107483    0.20630607753227
O           2.48915452897588   -1.20537382099593    0.77800751573860
O           0.10040231534375   -0.88895143073689    0.93864297079682
O           1.15046577053689   -1.12988504300749   -1.22493618293480
O           0.99577339381502   -3.04756038609032    0.26756227656141
H           1.81051864774656   -3.39461373432518   -0.08212954733210
O          -2.26155567553620    0.92617846758283   -1.37371613827939
H          -2.84736208754446    1.62910738729554   -1.65839330733522
O           0.76759883048565    2.39712245122255    0.55513251578828
H           1.35445419953907    3.14930442112686    0.45807015107294
O           0.27003865167224    1.11359585055165   -1.62842033230507
H           0.67729539896810    0.09985753055959   -1.49153072923889
H          -0.75104618058292    1.01398864317449   -1.64007528082525
H           0.49610884270047    1.62836061990530   -0.78216850345607
O          -1.69555241446793    1.08966346727240    1.16068814220353
H          -1.04465846811170    1.80159577420312    1.19207808271286
H          -2.22393403003756    0.95460981770395   -0.37567075598094
H          -1.17179968000473    0.26814559859258    1.20623050206073
O           1.86293735361081    0.82450848464141    2.28797655467057
H           2.24308550112400    0.08353913440628    1.75983710462689
H           1.20639657892548    1.79199329672668    1.23038146332302
H           1.15364805177930    0.41974368916209    2.79440893145593
N          -1.61717683176738   -2.23084658587567   -1.19103327209246
H          -2.08452663826238   -1.34771631931080   -1.36176051267063
H          -0.79849309140105   -2.25270834709821   -1.78673078533949
H          -1.27343484967113   -2.20905802561097   -0.23875695074174
