    26
        -50.44195668  Gyration_radius:  2.44514568325 Dipole_moment: 4.536
 S          -1.55782328617564   -1.04163595319733   -0.39248148703146
O          -0.36491358416550   -0.61193870707706   -1.08116614636491
O          -1.52851945758609   -2.43289638673833   -0.00270300572449
O          -1.87154407846789   -0.17118675151858    0.75635150113575
O          -2.76116248862569   -0.87817146594073   -1.39779107920526
H          -3.48356998346328   -1.32171582154661   -0.96420910597019
O           1.96563499667924   -1.01008162522849    1.32583254726947
H           2.34313765227223   -1.44531391530854    2.09244373528066
O           0.95795644781926    2.61046748637122    0.35945755259485
H           1.62138790784048    3.23254430281263    0.66150378379107
O           1.99961923751904    0.64890537522456   -0.99597073331079
H           1.40287532478348    1.98790001330536   -0.28304707608093
H           2.37908062503566    0.08743907858274   -0.30880918705647
H           1.15476877304083    0.22207749557245   -1.23127843587268
O           0.12284685928693    0.71842616052702    1.85329084243141
H           0.38960025396429    1.55009946908463    1.31485560256590
H          -0.80097621980361    0.33622411279056    1.39327056743404
H           0.84014526001196    0.02140683881003    1.67422606221798
O           1.03218261869015   -2.87732686803539   -0.19673188126490
H           1.60399936128063   -1.74724713367048    0.74234359951235
H           0.05476566566241   -2.85040426393131   -0.06869612840929
H           1.16367789170583   -2.59711116268951   -1.10644033763446
N          -1.81037665367028    2.06627678468499   -1.20892931956682
H          -2.36678658224535    1.75463932618331   -0.42227847607005
H          -0.98769322195814    2.52041010566936   -0.82905323248048
H          -1.49831333943470    1.22821349525751   -1.68399016219264
