    26
        -50.45381459  Gyration_radius:  2.64818038724 Dipole_moment: 1.735
 S           0.66915031076306   -0.09301425102597    0.43250289948352
O           1.68358338169332    0.87825191039293    1.01338165403150
O           1.51694021021891   -1.24471571737111   -0.09355978105150
O          -0.20404454458903   -0.58212847357178    1.46259485944755
O          -0.01805833609614    0.54070027707211   -0.67966230652400
O           0.05824206394444   -2.76370192406846   -3.00704572677054
H          -0.55213981965703   -2.56470837452041   -2.25079395338014
H           0.49872138268415   -3.58723657714084   -2.79106774362492
O          -0.90301435292311    0.95940746942408    3.53817729666565
H          -0.50807287433860    0.56223087707304    4.31655970586843
H          -0.77919577304308    0.31855324587503    2.81089985831404
O          -0.97955054220550    2.96762200178682   -0.07854431294182
H          -0.70624606355209    3.56046329673200   -0.78107480348496
H          -0.72986028129557    2.06636955554780   -0.36211033712836
O           1.60795488024778   -0.68984323961849   -2.52733241923600
H           1.08409309374102   -1.45840561937389   -2.87961467022027
H           0.96966462717009    0.02189953646883   -2.38804735564463
H           1.69967417311017   -1.05903211880494   -1.10028015289557
O           0.48301041509507    2.73573446929804    2.13458311087397
H          -0.07545549057506    2.23978181675356    2.77925364734602
H           1.22800758522884    1.71220922891643    1.51920669751018
H          -0.12525346308734    3.01028844684242    1.41103962094717
N          -1.37365589642423   -2.02387640110287   -0.84411053979064
H          -2.36011943934038   -2.22494746275361   -0.72893039187012
H          -1.27538380462769   -1.01711327282261   -0.93031889786310
H          -0.90899143215766   -2.26478870002208    0.02429407190996
