    26
        -50.44195652  Gyration_radius:  2.44528658664 Dipole_moment: 4.532
 S           0.76743311910673   -0.72401329314055   -1.59845043330505
O           1.36908010348581    0.60291210320269   -1.36710693941509
O           1.74312788973859   -1.77713856134737   -1.43431365830284
O          -0.42566739287207   -0.91749798200300   -0.81039666734126
O           0.33216177256741   -0.73958678462501   -3.11349651817359
H           1.15701194271584   -0.75822554543883   -3.58887959569955
O          -1.33672394526053    2.21335720998949    1.08064868272586
H          -1.64255475965447    2.73423158023937    1.82464271452688
O           0.82116190885386   -0.76376865614660    2.32018839851553
H           1.50177745377059   -0.90036856184934    2.98176437292722
O           0.86317899490268   -2.83645552724420    0.77834333942936
H          -0.04272208704052   -3.01162771386223    0.50993251940875
H           1.31114816533099   -2.53414302486461   -0.04653514250648
H           0.84938684280605   -1.57642957241586    1.72551698946734
O          -1.83923927047499   -0.32101731353886    1.38893830901394
H          -1.50946364749716   -0.60184836260116    0.51511830208860
H          -1.15925055529407   -0.60220723204121    2.01346140346663
H          -1.70673592085026    1.29164197984806    1.18951453958218
O           1.07450113771585    1.39387219682700    0.92606060976665
H           1.23437417083297    1.07393415682292   -0.11543753254589
H           0.14504838440139    1.82751122926952    0.95457964205257
H           1.00886493065793    0.54409454231263    1.47897493469578
N          -1.30185011033268    1.70161526145094   -2.10306378464361
H          -0.32821467816503    1.91245420296774   -2.28520179546634
H          -1.36617994008608    0.69310166360170   -2.03842756613713
H          -1.51965450936322    2.07560201459685   -1.18637512412026
