    26
        -50.46147056  Gyration_radius:  2.59178456128 Dipole_moment: 4.231
 S          -0.20031862096787    0.52808881528999   -0.48796804634039
O          -0.71572050102682    1.81670840998849    0.00580909534686
O           0.90568807500725    0.08208495836888    0.34773936768238
O          -1.38454013354354   -0.47215781307589   -0.22111699024244
O           0.09819067374425    0.53094663743382   -1.89980318707376
O           0.73970719530874   -3.26424257239996   -2.17182800561326
H           1.37510719226826   -2.54009140274825   -1.95404433488458
H           1.11271883014254   -3.73044221603256   -2.92150689766945
O           0.91672502270635    2.99575372146418    1.80529801241082
H           1.75512027827023    3.21952666595341    1.39859861788759
H           0.34055114998992    2.68371845292446    1.07921926023397
O           2.21605601181144   -1.09904217665616   -1.68846941620084
H           1.61998569931354   -0.44621568530353   -2.09192732544969
H           2.11799301938185   -0.90432761168300   -0.74510360572692
O          -1.37019455824507   -1.64903941437413   -2.46940748667687
H          -0.88144813130072   -0.86691306572002   -2.76800698771649
H          -0.69760789879489   -2.36401019263886   -2.37754895166562
H          -1.48084378974260   -1.02701498532463   -1.06290329648862
O           0.61271987653621    0.56431985452152    2.90964058785073
H           0.88060430221050    1.50316531900867    2.83630594073949
H          -0.84920230633866    0.67462302396649    2.63110918157540
H           0.86316051353278    0.20080222020955    2.02743186676927
N          -1.80837613130152    0.84802184721452    2.11765446246566
H          -2.46951292562725    1.38137277271552    2.67302015403602
H          -2.20068784617930   -0.03645011075491    1.79854216175065
H          -1.49587498716858    1.37081455764563    1.22926582299429
