    26
        -50.44195642  Gyration_radius:  2.44512660473 Dipole_moment: 4.532
 S           1.25566253113720    1.41889325884879   -0.27663161695446
O           1.86442247954726    0.45189921499535    0.65629433511261
O           1.95289889493119    1.43579055066492   -1.54220698185075
O          -0.16709289616477    1.21697537315573   -0.40669642804192
O           1.46663410854146    2.83774318655947    0.37739349512915
H           2.40475265197857    2.98532819093798    0.30752299046699
O          -0.27373928382619   -1.87679089476479   -1.74410656182935
H           0.06473234270843   -2.58805167736560   -2.29101994788887
O          -1.39395936527935   -1.45565593657593    1.94651888408192
H          -1.91001569767225   -2.21353852868252    2.22521218371351
O           0.14231018124576    0.31614305449163   -3.04524268439039
H          -0.59339605352333    0.90489839984825   -2.85700886446436
H           0.91545019513377    0.73640996262314   -2.59995607268853
H          -0.10400546669265   -1.02881813310814   -2.26082235861930
O           0.76449628283701   -1.72991747824745    0.61432610118511
H           1.29202003520387   -0.76498153077908    0.66157979254508
H          -0.04150840898816   -1.64904584035383    1.24418392482807
H           0.38478703532860   -1.80184518423321   -0.32535673553016
O          -2.26716040439975   -0.44587105549168   -0.28690884029386
H          -1.64827896351477    0.30754224380055   -0.31086623835730
H          -1.93305695214380   -1.06334820595341   -0.94914102786245
H          -1.88023900044084   -1.02649421859164    1.18644627835801
N          -0.13641963772191    1.43367181982596    2.63434380582692
H          -0.66269529374960    0.56938243453607    2.69447621417727
H           0.84447406254753    1.18240698646863    2.61469612577207
H          -0.34107337702660    1.84727400751342    1.73297022761181
