    26
        -50.44195681  Gyration_radius:  2.44537879455 Dipole_moment: 4.529
 S           1.36071322657375    1.30505882047805   -0.33773426818203
O           1.46988228072706    2.39329575980998    0.60666092245378
O           2.01561722527871    0.08604039849697    0.17385631993790
O           0.00694905736262    1.04797939691864   -0.76535621356009
O           2.18067933595007    1.72877704803069   -1.61557038421004
H           3.01139464413284    2.03423272745347   -1.26436179192859
O          -1.43334613594665    0.10963014088553    2.13906242071225
H          -1.54512557678840    0.13600275399794    3.09113452837536
O          -0.81696519975563   -2.62660816345124   -0.54300464965475
H          -1.35568492710291   -3.39808419263276   -0.36149014719598
O          -2.21790640288528   -0.43388129968556   -0.54902754561032
H          -2.35231254720220   -0.26031007652130    0.39083474531060
H          -1.48922263003652    0.15847748384459   -0.81225061109840
H          -1.43731918273670   -1.85792240409943   -0.69323762101296
O          -1.01565180567882    2.54281739298894    1.37664896173280
H          -0.04850536382867    2.59262259560435    1.19088391422533
H          -1.43171055997097    2.64783013496056    0.51684618543450
H          -1.26941291292479    1.06221421696553    1.85556891347096
O           0.46725465396252   -1.42666344734051    1.30695401304766
H           0.03558709780069   -1.98967165982028    0.56609356498390
H           1.20037457725411   -0.77145023728628    0.80948037602118
H          -0.26352221439820   -0.81788325864164    1.66372865429155
N           1.30952724361845   -1.13008963450774   -2.45275976619928
H           2.09747866316300   -1.10763989046227   -1.81677451095229
H           0.64998923036664   -1.80563252600052   -2.08371035772419
H           0.87123823308799   -0.21914205996550   -2.39247565265369
