    26
        -50.44195685  Gyration_radius:  2.44538431591 Dipole_moment: 4.526
 S          -0.42134097290025   -1.72145221677324   -0.72647842309519
O           0.65765141113275   -2.67970340922437   -0.80168743092347
O          -0.98135659659665   -1.65344829852755    0.63678265735790
O          -0.06677121491921   -0.41547964582775   -1.22691596791136
O          -1.58188292686116   -2.27196848736642   -1.64017684245752
H          -1.67031099691711   -3.18220599223048   -1.37491067445062
O           2.34257248689643    0.49361376932003    0.95453611285395
H           3.07747316213481    0.31918947792352    1.54542066849350
O          -1.08723585410252    2.29386715616979    1.18987295771635
H          -1.00179277991718    3.11093944495768    1.68326017410620
O           2.66438902054239   -1.04296882097202   -1.09783220323471
H           2.35090238481427   -0.56086140636912   -1.86768994288182
H           2.47870947612314   -0.11198939721181    0.16128608237231
H           2.01065914264532   -1.77165673858126   -0.97954795169832
O           0.00421524901705    0.12909833318558    1.98613508515076
H          -0.46262419231330   -0.68954050483775    1.41506636424551
H           0.93688390216157    0.24926544710677    1.60194668184312
H          -0.51656878156369    0.97986080022829    1.74708044843122
O           0.68088840699580    2.10784905607840   -0.71027947124620
H           0.35048602308248    1.26890025315774   -1.08193834003647
H          -0.49693561833658    2.36679568290325    0.38711368639182
H           1.48587153946291    1.86909161423020   -0.23435161990149
N          -2.94580354238206    0.27443860114281   -0.50434361507485
H          -2.61732566936704    1.08048228818506    0.01516867609236
H          -2.25058143773196    0.06968310643758   -1.21167028921399
H          -2.94017164126250   -0.51180011310057    0.13415318695572
