    26
        -50.44195690  Gyration_radius:  2.44534275417 Dipole_moment: 4.527
 S          -0.40375794178507   -1.82697451574896   -0.40870145058327
O           0.99564468509453   -1.57210197878874   -0.80020287853611
O          -0.47665784616622   -2.74390755065715    0.70584426574171
O          -1.13255699713873   -0.60056376822134   -0.19300144440116
O          -1.06810569306117   -2.55453650405290   -1.63919956630317
H          -0.66319742240449   -3.41636639340357   -1.64160633459853
O           0.96926073349738    2.40642886021270   -1.06183494377110
H           1.32153850355862    3.29216350941240   -0.96335519723416
O           0.55963744732594    0.72204315471389    2.40998307948819
H           1.06967066423263    0.66768510618188    3.22025494414839
O           1.92808331450476    0.43241723049235    0.24018113674677
H           1.41266444964805    0.52711183825526    1.11042657971222
H           1.54955994778698   -0.48096310207153   -0.24568237438893
H           1.63564589130216    1.21615773433636   -0.35341235351790
O          -1.26857067026294   -1.09742107514131    2.56476571144375
H          -2.05385923649191   -0.75112664139876    2.13258332927416
H          -0.96051809492044   -1.82338921401307    1.97278429331853
H          -0.14679251607582    0.00768713242824    2.48215582748666
O          -1.09589996915596    1.99815878982598    0.46787374734972
H          -0.69841526408231    1.86595611402532    1.33736297729437
H           0.09480720300086    2.37753135523242   -0.57945790726058
H          -1.29355998567083    1.10023152032693    0.14260325343622
N          -0.15273056440055    0.08225099032539   -2.99641530836005
H           0.58808542184890   -0.59647600928452   -2.86873733444414
H          -0.90608051509562   -0.20190893968500   -2.38207814500937
H           0.19610446489996    0.96991236672000   -2.65313390700104
