    26
        -50.44721164  Gyration_radius:  2.51036097665 Dipole_moment: 3.933
 S           0.52243284082025   -1.69770563890703   -1.16965684949517
O          -0.20813535107991   -0.52843680505580   -1.63471449970984
O           1.89728360922150   -1.32467002242766   -0.78917782064174
O          -0.16352548051036   -2.43895161841045   -0.15067967920460
O           0.70420439016393   -2.64441189575121   -2.42043177148859
H           1.29273750777331   -2.12275022370953   -2.95557371974165
O           2.50787345377771    2.28986824809820    0.02456546770165
H           2.58026454095989    3.10639931638976    0.52103027078951
O          -0.12914720447142    0.63165556991715    2.07463755793272
H          -0.18612970600074    0.73863633867595    3.02533315222239
O           2.20563671835220    0.05368596246075    1.20918284579627
H           2.47594915019202    0.94248880300121    0.77441959930993
H           1.26869207521309    0.21652670910721    1.59317077336797
H           2.08969568853710   -0.61657003555350    0.35728410506683
O          -1.82966328368584   -1.12262466905822    1.44414965806672
H          -2.38958620721391   -0.70125027779942    0.74650260460613
H          -1.27804119000949   -1.76208986660561    0.94941697585166
H          -0.83019874885126   -0.08858816401089    1.83717570605789
O          -0.01622490116378    1.86263388801295   -0.46768523167246
H          -0.08657527134572    1.04225044934638   -0.99865236185525
H          -0.31501393065738    1.61646224129413    0.41828335975153
H           1.56907002405070    2.23866395084169   -0.31049939448849
N          -2.91202028314583    0.00190563874274   -0.75368585690921
H          -3.07040887553712    0.99759810350956   -0.84680115822927
H          -3.65898281820411   -0.47643708103205   -1.24080476212975
H          -2.04018674718369   -0.21428889107310   -1.23678896095413
