    26
        -50.44195687  Gyration_radius:  2.44534071905 Dipole_moment: 4.527
 S          -0.93789020628552   -0.33408749012402   -1.63615010526027
O          -0.49212341047606   -1.63187346345991   -1.09425435648702
O          -2.37774634856660   -0.21804787442335   -1.59874112651230
O          -0.25509373830822    0.77204829016236   -1.01006434054928
O          -0.52216607685997   -0.33819560654160   -3.15659155324447
H          -1.10893638966246   -0.97477278555263   -3.55308658460074
O           2.40411489171824   -0.43997076798181    1.37409268482892
H           2.92940511538729   -0.44903888767638    2.17554142305815
O          -1.28349233597284    0.45551270783327    2.18774466650684
H          -1.92035802051613    0.22544908970998    2.86678802221272
O           1.02664300661635    1.75427198291044    1.13114179711450
H           2.03999178821088    0.48417892772982    1.26624892681257
H           0.65696979907332    1.55169523426762    0.25168107576101
H           0.29467604016224    1.61979269261423    1.74565920359411
O           0.09700456052608   -1.52561873580184    1.27455545267980
H          -0.16325684204482   -1.61928874356611    0.20798012105573
H           1.06825883799295   -1.19722758745310    1.30595868021673
H          -0.47145525645705   -0.76770707063603    1.64120555768073
O          -2.61371684443004    1.57629483233919    0.27701120855213
H          -1.81419374637990    0.88885087191723    1.44935873226660
H          -2.05221053630015    2.25943222066942   -0.09906581241799
H          -2.67652740401420    0.89138194582004   -0.42957841178315
N           2.25553421874859   -0.74634710458062   -1.83383535401553
H           1.61858676375296    0.02782918602015   -1.97690309548053
H           2.60422606393208   -0.67681160904460   -0.88456295703676
H           1.69375608019432   -1.58775025514561   -1.88213384495395
