    26
        -50.44195694  Gyration_radius:  2.445349556 Dipole_moment: 4.528
 S          -0.43347868540560    1.84171591252313    0.29655469102576
O          -0.06619283735401    1.68363666351133   -1.12350888168104
O          -1.83397493944716    2.16700696060548    0.44204129223866
O          -0.02162896435117    0.70699625157604    1.08689415452093
O           0.37842511719941    3.08994870480800    0.81387082240954
H          -0.03713103965673    3.82915424621809    0.38072622551335
O          -1.85662274461546   -1.76230854047000   -0.30037696926115
H          -2.63730768419261   -2.11442446333907   -0.73184194448632
O           1.96408485640668   -1.74422826997538   -0.97964211982926
H           2.25191545182911   -2.60439797393533   -1.28880648407736
O           0.56214740650799   -1.90760627378852    1.20645433053802
H           0.45936375319002   -0.94692197585110    1.33957517326008
H          -0.29854211482902   -2.20842909702267    0.88991895570670
H           1.58256997126401   -1.86796055515789   -0.06456263917678
O          -0.15179597753120   -0.63821625887029   -1.87987049082007
H           0.75039369764376   -1.04988691614112   -1.61750157050063
H          -0.84757693683109   -1.07243098408362   -1.28053625546105
H          -0.10557523937998    0.42144620173136   -1.58248057657276
O          -2.68930671032511   -0.07147466056336    1.46728317087317
H          -2.19441411121352   -1.10444994493946    0.38350252128794
H          -2.09357442188815   -0.12787768752102    2.21915982306609
H          -2.51199804827400    0.81690896235238    1.07780272542717
N           2.71322890548093    1.27664246488223   -0.13011747206149
H           2.78466703731845    0.30597090103102   -0.41330322147211
H           2.24205115331385    1.76977198799452   -0.87888688296727
H           2.09027311517270    1.31141434447965    0.66765162248015
