    26
        -50.44195659  Gyration_radius:  2.44519075671 Dipole_moment: 4.531
 S          -1.62308256367969   -0.56162769702193   -0.84703373472308
O          -1.53901324608385   -0.92119016241566   -2.24404604229442
O          -1.15855868710372   -1.66311490715812    0.01734524774519
O          -0.96314839350627    0.68244774643135   -0.53280523077141
O          -3.15310840016051   -0.37320592148266   -0.51743443317343
H          -3.56293515930688   -1.15431230116486   -0.87608727469150
O           1.28305063932651    0.31945865307953    2.47088248150394
H           2.06899918053669    0.45191233305108    3.00297094938291
O           2.24170858576848   -0.06862605229808   -1.26941152197579
H           2.92522770551550   -0.51941458985900   -1.76861438916664
O           1.18580323276717    1.95193356717007    0.44691623273563
H           1.23027092002466    1.07782286911888    1.82253213518342
H           1.81347960461102    1.56389503703207   -0.17509406009522
H           0.30834249532525    1.67129958710560    0.12667905155211
O           1.19528022404887   -1.45509609220255    0.63990564099448
H           1.21517991612578   -0.82840898642529    1.45211095709794
H           0.13403580212120   -1.59033245708774    0.37969888584967
H           1.61382979196786   -0.93842984826513   -0.12828016141403
O           0.42558905120392    0.63033748749724   -2.96903306714413
H          -0.31111465352617   -0.01160407119272   -2.83613359281389
H           0.06732803759376    1.47217185652235   -2.67517082053068
H           1.54024216090534    0.19646306529854   -1.94205578530170
N          -1.92944807021426    0.09333545674937    2.29822384808830
H          -2.00325244495582   -0.88366725941381    2.04213612368177
H          -0.98789539968439    0.23873518956994    2.64451327162791
H          -2.01681033962318    0.61921747735067    1.43728526866359
