    26
        -50.45381437  Gyration_radius:  2.6478198856 Dipole_moment: 1.728
 S          -0.36814159096800   -0.63164743042534    0.33101285944644
O          -0.94578894727324   -0.90578351835206    1.70977593386470
O          -1.37860282272067   -1.25381561670843   -0.62496333682176
O          -0.32066545301804    0.80323199455760    0.10825090417270
O           0.89685081022346   -1.29386238324096    0.17639199740486
O           2.55853650795261   -1.62400073217382    2.25069426375132
H           2.08012632898299   -1.51651061201131    1.40539222068341
H           2.59987619038682   -2.56742056969907    2.41793913273974
O          -1.58161470671495    0.55054662100894   -3.72413144805696
H          -1.86279712699400   -0.25380989012451   -4.16325586787092
H          -0.67277607077012    0.37304229884391   -3.36811533113116
O           0.84822208799851    2.13968165438481    2.11402328660116
H           0.27042616916320    2.87105195178702    2.33980303026006
H           0.47684507174676    1.73005355735347    1.30822416916686
O          -2.66447975839054    0.76679481617650   -1.33388902593688
H          -2.03407257753438    1.33095012571768   -0.86730732126013
H          -2.39403679902911    0.79167338025843   -2.29066440047555
H          -2.03693713453793   -0.50150849836062   -0.91156472146932
O           0.67882347596163   -0.16793973612313    3.43169855530822
H           0.84937574483628    0.75202479898304    3.12579864168631
H          -0.28763056384388   -0.61010639915446    2.50861391185305
H           1.47786615515679   -0.68679425722184    3.17543044936309
N           0.74740790727336    0.01254958446894   -2.47478495649851
H           0.62860368533533    0.60860161195790   -1.66163222147143
H           1.65715947574361    0.21645490287114   -2.87162778042810
H           0.77742394100298   -0.93345764478803   -2.11111295485275
