    26
        -50.44721130  Gyration_radius:  2.51034234941 Dipole_moment: 3.939
 S          -0.16543538237690   -1.80792459688025   -1.11066308579895
O          -0.83451146438120   -0.55185973483591   -1.41336374383345
O           1.29492817424488   -1.65658416640521   -1.24786227580029
O          -0.55770794148405   -2.38279987774679    0.14386028548853
O          -0.56425399841038   -2.82028966536823   -2.25518233021486
H          -0.12625082820201   -2.42742417724118   -3.00263369636583
O           2.66353255132768    1.83435992815646   -1.03239984701316
H           3.01946663924812    2.64582729534418   -0.66692663352644
O           0.68801452597844    0.72554800222095    1.92896020912908
H           0.97878955938238    0.87750022966735    2.82944999306200
O           2.47021183356827   -0.27068682139786    0.39099304700491
H           1.75806527936995    0.06235022937569    1.04954695551898
H           1.97112621780070   -0.94556640540841   -0.30529008948139
H           2.69897469515469    0.54201132262583   -0.19164620194230
O          -1.36006970609885   -0.74130261527999    2.07102079098381
H          -1.11262054437980   -1.48357477611778    1.48302336586232
H          -0.14786167768681    0.12408398703916    2.00843585743986
H          -2.05863326570005   -0.25840505725774    1.56433084294993
O           0.09107035847490    1.81708162179657   -0.60958429747868
H           1.66999287788280    1.92805921824473   -1.02806672948706
H          -0.27560768371424    0.99969408270841   -1.00619884839976
H           0.08553860126347    1.65956082116789    0.34438035758631
N          -2.95816399140150    0.46667290327046    0.26733842222124
H          -2.98813452334153    1.47077322976930    0.14014900014840
H          -3.89025930943262    0.10708487219103    0.10597126880003
H          -2.35020096708481    0.08581017036206   -0.45764262685443
