    26
        -50.44721129  Gyration_radius:  2.51034223222 Dipole_moment: 3.940
 S           0.45840205693367   -2.01136625808699   -0.52358311147068
O           1.79419497820097   -1.45364329220637   -0.80471571632890
O          -0.01989231048857   -1.55005653822825    0.77080038168004
O          -0.47632090195919   -1.80287333730599   -1.59176728184431
O           0.70283772047901   -3.56562640280031   -0.38796269917832
H           1.43634201174923   -3.57957988653060    0.21755666818338
O           2.76507061577013    1.64655917794956    1.08051071085165
H           2.87008505385237    2.57179011077981    1.30778656890877
O          -0.36500082693916    1.93164548656633   -0.92549353394844
H          -0.55565108083271    2.69009261207346   -1.47951735602383
O           1.97334602394581    0.94784505152654   -1.23893272874660
H           1.01957161660743    1.32116181055885   -1.18713816540488
H           2.42954083746985    1.25402086960167   -0.37267164352538
H           1.90066717195116   -0.13331795303097   -1.11522973245336
O           0.31515422076161    0.95038328124643    1.63698776353671
H           0.21628474321902   -0.00181450673686    1.42861820054051
H           1.89297385045368    1.35241776123601    1.46634944405120
H          -0.14948256559200    1.41396987125043    0.92699014433225
O          -2.17133977359911    0.23104230107226   -1.38569805886925
H          -1.11314284750089    1.24898774508896   -1.12810111598555
H          -1.64349097820108   -0.55916069648597   -1.61996137599107
H          -2.55012222795545    0.01055491775785   -0.49922993423289
N          -2.72665329046179   -0.58932257853426    1.12130434971983
H          -2.72443148624353    0.03336731113501    1.91977043886309
H          -1.82992462948107   -1.07517848033191    1.11142830012961
H          -3.44901800214003   -1.28189838756135    1.27189945320876
