    26
        -50.44721129  Gyration_radius:  2.51033040082 Dipole_moment: 3.939
 S           0.83846780804288   -1.88537999394843   -0.52166883941805
O           0.11501449284411   -0.99241629308004   -1.41397503951278
O           2.09616078500161   -1.25698275486526   -0.07700766047477
O           0.04356730894112   -2.38579438706702    0.56272875782204
O           1.30250596970945   -3.11773488623570   -1.39333845736063
H           1.93584838845533   -2.70207258042348   -1.96862374519840
O           2.29039505668801    2.48716313392352   -0.30432801434962
H           2.21519063256171    3.41310886699598   -0.06838002716336
O          -0.52931635102865    1.17253464613133    1.75087696245647
H          -0.75631948290882    1.53602673952614    2.60811403718108
O           1.95518035801063    0.65863406916699    1.43899052211113
H           0.95701987907737    0.80940486239037    1.61972757511183
H           2.03645699577478   -0.23502346494425    0.81910149843508
H           2.23018081142785    1.41356925485897    0.80127952182280
O          -1.96213690881694   -0.88043887092819    1.43648398721263
H          -1.28884229777742   -1.56277951822278    1.23896698628450
H          -1.12429546954241    0.33537284586998    1.64166973290215
H          -2.42326998510559   -0.74330715598832    0.57250080699268
O          -0.07339737406736    1.63592683038636   -1.00029815895094
H          -0.49976718600513    1.61656740626596   -0.13269519863746
H           1.42966643493427    2.22994100949450   -0.73897794168277
H           0.00924577971976    0.69652810210109   -1.26591798838267
N          -2.73110614121561   -0.55705066121853   -1.12678157646762
H          -1.77692846921698   -0.79760224051484   -1.39500115568933
H          -2.93993725508935    0.34748091755763   -1.53112927796397
H          -3.34958377041534   -1.23567588722829   -1.55231731707880
