    26
        -50.44991649  Gyration_radius:  2.48985760743 Dipole_moment: 0.419
 S          -0.36999670107153    1.65938168338992   -1.03711039439401
O           0.15725874404715    0.90278471646977   -2.14917602196831
O          -1.74964565182167    1.25580326623443   -0.72326393736554
O           0.46390922176288    1.64938894587348    0.14303648081987
O          -0.46435021847405    3.16185998446832   -1.51772862400949
H          -0.78792255873498    3.03710067761747   -2.40314613923144
O          -2.71077057366546   -0.39506804034861    2.03225851480191
H          -3.05456653625337    0.49846638974980    1.96073934645320
O           0.00229363768767   -2.21775392922419    0.06284996647264
H           0.04133271068044   -3.16560292509029   -0.07262875296560
O          -2.25768266313614   -1.11715473536211   -0.33908905417200
H          -2.03817653820210   -0.11511427479685   -0.63375414105443
H          -1.35431547383571   -1.60219313114707   -0.24056146504169
H          -2.58113769009421   -0.94937548833062    0.63750201776539
O          -0.11028959147454   -0.17578484395090    2.00996832961706
H          -1.73241593698886   -0.29840850771862    2.20836206513725
H           0.15747604439967   -0.97531063609480    1.53682687411869
H           0.10756000037235    0.56869025755544    1.41268112673372
O           1.69921078130360   -1.15010385856457   -1.46933530081166
H           1.17888921841509   -0.42140898432967   -1.86690937879583
H           2.33645597611148   -0.69598423467985   -0.86513205057637
H           0.70653425907710   -1.81032682160164   -0.57215661047167
N           3.05081991784487    0.37324797584048    0.30327377704859
H           2.24443893717202    0.99702053238796    0.31218862044215
H           3.85499797719617    0.91531080596560    0.01408174953018
H           3.21009270770256    0.07053517570726    1.25622301190087
