    26
        -50.44991647  Gyration_radius:  2.4898424904 Dipole_moment: 0.418
 S           0.30545067299432   -1.91828402151149   -0.43850522954849
O           1.63116967542487   -1.57794697098360    0.10129207897811
O          -0.64636853532771   -2.15730183761912    0.62166095321026
O          -0.12601636357331   -0.95403936620866   -1.42447007531361
O           0.49327640285003   -3.29307953944996   -1.19485924694202
H           0.51197206894923   -3.89209920868637   -0.45656366650120
O           3.09436410387836    1.43190389932899   -0.09665854973170
H           3.54066248547147    0.73669878374481   -0.58578908545723
O          -0.34268901518309    1.54241643380724    1.55763015826063
H          -0.57359019878215    2.08744292655590    2.31123880208293
O           1.83931571413969    0.24341257100326    1.73706416334871
H           1.70695895793234   -0.62175464807656    1.12618090498137
H           2.46382460763598    0.80442026458554    1.11921292360711
H           0.94118109885740    0.74776128609005    1.73602046680563
O          -2.22453286500025   -0.09731502001019    1.18766739210171
H          -1.12921400753805    0.88656640607313    1.42916066714920
H          -2.56875895923908    0.11093269209957    0.28460939194076
H          -1.73670408115971   -0.93930576955443    1.07434568494210
O           0.67871838449656    1.57121169089718   -1.07481271571042
H           0.41509381994371    0.65904572413801   -1.31330807981773
H           0.15536753245401    1.79700985889480   -0.29384166328602
H           2.24334255414995    1.60918267215616   -0.58841135355019
N          -2.71668970869409    0.32423614075205   -1.43326499934572
H          -2.63026688537235    1.24163800688731   -1.85281408357204
H          -3.47126947382924   -0.15932941078910   -1.90332405459167
H          -1.85459795534956   -0.18342354403870   -1.62946079403799
