    26
        -50.44991645  Gyration_radius:  2.48985941407 Dipole_moment: 0.418
 S           1.60002154023698    0.53639117544980    1.05683873938717
O           1.57487272412553   -0.83537798103281    1.50932005942758
O           2.15882113203789    0.64048161946265   -0.30025803587536
O           0.33340697446369    1.22431919184927    1.16002468444581
O           2.61445813576716    1.30274558065236    1.99545052689239
H           3.30405531197491    0.65198942012381    2.06774539181248
O          -1.02074480046667   -1.55376795609195   -1.21080602231292
H          -1.38580608263810   -2.33350109929204   -1.63159529090043
O           0.43077280868769    1.45506019599207   -3.05508828977452
H           1.09935118447955    2.09436762973909   -2.79817813217057
O           1.22049825478817   -0.74032782565259   -2.10289269742052
H           1.69231453978224   -0.24824660331800   -1.28169658109721
H           0.34171337133058   -1.14031521752680   -1.74406955675149
H           0.92964445803128    0.08831262473369   -2.66438995140629
O          -1.20169114138989    1.25819214806667   -1.02837535122944
H          -1.45322257298212    0.32513083349212   -1.05927998931135
H          -0.66245829814126    1.35853050606836   -0.21745450523896
H          -0.28699188146101    1.51696809031997   -2.36337125015461
O          -0.77188346189816   -2.05182668697826    1.25028496839086
H          -0.93393289466932   -1.78542973177746   -0.20880330185085
H           0.13621400591271   -1.73017275589759    1.42827944103648
H          -1.35785916648144   -1.39654730558917    1.70261722141118
N          -2.05937247759321    0.07595785545431    2.30114950930133
H          -1.24867771538052    0.63676819288901    2.04097750245799
H          -2.18494041879643    0.16367363789270    3.30150427961493
H          -2.86856350972656    0.48662445095494    1.85206663131873
