    26
        -50.44991651  Gyration_radius:  2.48983465298 Dipole_moment: 0.420
 S          -0.29872595205042   -1.84970078383411   -0.67487883281196
O           0.40500729792685   -2.15895149372261    0.57964898926519
O          -1.69178402236964   -1.55185463927574   -0.43465958948093
O           0.40479861724927   -0.84636141424482   -1.44072766629137
O          -0.26195721844307   -3.18213127649382   -1.52374952671753
H          -0.94569364095412   -3.67965999685932   -1.08877258446709
O          -0.56671730648021    1.59247635042728    1.43724052439221
H          -0.96614766443232    2.21782745673671    2.04362914750053
O           2.73434462298121   -0.22941104016531    2.02597279982846
H           3.05661449909400   -1.07638639294785    1.70900645117610
O           1.75486974174695    1.00012188564043   -0.05724602894420
H           1.01147096356563    1.48664801478965    0.32412133446146
H           2.53143516121912    0.30895397895461    1.20956123196276
H           1.35441559110153    0.31465716726311   -0.63016289412636
O           0.27693410439140   -0.58123127114798    2.45876206765653
H           0.21302250758674   -1.30645920487225    1.67835817244931
H           1.30644364601505   -0.41836402151160    2.46738165162275
H          -0.12735032333872    0.29049843252523    2.08766245446887
O          -2.27645671026360    1.03696300895141   -0.33343277498756
H          -1.87032098232351    1.33999164742097   -1.18229905358112
H          -2.21635601175684    0.05978803409130   -0.36975381432462
H          -1.28546204997851    1.38750241407308    0.72552440334691
N          -0.82789122549302    1.51390715053955   -2.56140655781250
H          -0.14041159601244    2.25601672476054   -2.60341158048545
H          -1.24529815043350    1.42873672458797   -3.47938055728298
H          -0.32878389850669    0.64642255439110   -2.36698776682244
