    26
        -50.44991646  Gyration_radius:  2.48986000847 Dipole_moment: 0.419
 S           0.22905097124919    0.82661219146300   -1.79733044500205
O          -1.19789779623656    1.03738201236972   -1.71702294993634
O           0.96039289507987    1.80949794805051   -0.98257515681830
O           0.65257578435418   -0.52297646920840   -1.50181031491770
O           0.64510643285422    1.11922853562755   -3.29357037218344
H           0.11234349730545    1.88665342960281   -3.47109797853124
O           2.64566099729472    1.12639651691467    1.83443095439171
H           3.19287622146034    1.41935065687558    1.10202436703218
O          -1.01027977824169    0.04204894004250    1.97479726731975
H          -1.57830704899745    0.11940518016974    2.74267762013326
O           1.41942033202900   -1.02470629256739    1.00965585520223
H           2.32387705546604    0.21365270167942    1.58767862346162
H           0.56328567468507   -0.95381025163077    1.45330733908778
H           1.23319130666848   -0.89829178358675    0.05690163241642
O          -2.46356884133290   -0.54713544988882   -0.00197684344994
H          -2.14046070442967    0.08017751652910   -0.68160677705599
H          -2.13469141680676   -1.42882105715333   -0.30504537342030
H          -1.62970149175438   -0.20185321902366    1.18611237440377
O           0.36581009935312    2.10052550767366    1.38351435710435
H           1.31230162995018    1.81741331187073    1.71591450090785
H           0.51897567635527    2.04752931041869    0.32863203295699
H          -0.25044121199862    1.31401429008898    1.63383099890740
N          -1.14619812233324   -2.71144357158513   -0.93462692615965
H          -0.43563690352665   -2.07025994740368   -1.28590390596472
H          -1.50309284166906   -3.23597645707318   -1.72309969275203
H          -0.68459242675766   -3.36461354027028   -0.31381119713002
