    26
        -50.44991644  Gyration_radius:  2.48986946985 Dipole_moment: 0.418
 S          -1.00942126767921    0.44223072670994    1.65853228181881
O          -0.72782677274358   -0.92888990040287    2.01607524018733
O           0.17060456118740    1.29846027464834    1.85648198982859
O          -1.57000118947977    0.61363835275036    0.33770771333702
O          -2.09136783092948    0.96345493368434    2.68569780224358
H          -1.76111223303863    0.57898302524895    3.49028852257135
O           1.70404329738812   -1.06796227270723   -0.93677111207823
H           2.41323838560831   -1.64506404217504   -1.22368514629733
O           1.96866829988706    2.72274885553586   -0.58899370892214
H           1.50219428176581    3.34205261145696   -0.02280065842814
O           2.30950182193763    0.66579605985620    0.82624778807671
H           1.40725192692464    0.85098302676487    1.36548398242390
H           2.10409795773307   -0.08668791402290    0.15352839707319
H           2.35618001129423    1.53467397695941    0.25233023865842
O          -0.15132185268107   -2.51895552799568   -0.03169204337559
H           0.96139167380075   -1.68736787330227   -0.57620600608816
H          -0.36826509304132   -2.06463740400201    0.80874027666517
H          -0.92616615278035   -2.33524910108863   -0.61756216785752
O           0.14312365360255    1.17883448732265   -1.63527196714965
H           1.26511691721261    2.25878523428710   -1.12497784110974
H           0.60288432477396    0.33024388124795   -1.69316923077825
H          -0.55037300940461    1.05642818241615   -0.95519326697023
N          -2.24166165064924   -1.55834408169348   -1.44491988501778
H          -2.20803624399920   -0.73365628444573   -0.84644495623354
H          -3.16246516255442   -1.96775491291424   -1.35182970881192
H          -2.14027866416329   -1.24274433415299   -2.40159657377355
