    26
        -50.45381450  Gyration_radius:  2.64825641191 Dipole_moment: 1.740
 S           0.68573440384066    0.00471126992795   -0.41360231522330
O           1.22142003860760    0.87277308486404   -1.54027743079343
O           0.25653001141237   -1.26832684949464   -0.92123979969761
O           1.88765168428027   -0.20023305630203    0.50040694368845
O          -0.34251478059309    0.73611397634773    0.30655243649612
O          -0.80326560370389   -1.50397348939127   -3.36935848632156
H          -0.49416764621055   -1.54899866056460   -2.44339967069292
H          -0.18362463586606   -2.02326504464450   -3.88510370427716
O          -2.20274084201615    1.79553585585766   -1.30404220228643
H          -1.61482224467838    1.38551720615987   -0.63979088359975
H          -2.30870410609168    2.71301302645205   -1.04572879985881
O           0.92182440309922   -0.46710350182111    3.95191540690878
H           0.38514595221458   -0.97902346682283    3.29319633743922
H           1.70703998556300   -0.98847958425968    4.12643925421883
O          -0.53445623395083    1.13499960941684   -3.27113825103117
H          -0.73047169406001    0.19296929649492   -3.48940687037177
H          -1.28408302024144    1.44024539829330   -2.71085684703128
H           0.50718610483368    1.02562092718681   -2.33156588477434
O           1.42534848085087    1.49798245011315    2.27302707483884
H           1.26223385789505    0.88182857642438    3.03647038960034
H           1.84518085546730    0.53406874246594    1.23533016114113
H           0.55832735143973    1.66803139561499    1.88225152325401
N          -0.41175120466879   -1.66774041481068    1.93756234836589
H           0.21437452202277   -2.08479170734674    1.25786883362366
H          -0.78617820103294   -0.83994432689984    1.48458915612395
H          -1.18121744841300   -2.31153072322578    2.07990129025372
