    26
        -50.45282134  Gyration_radius:  2.40493624684 Dipole_moment: 1.360
 S           0.07274665730103   -1.89368028839340   -0.40197425531710
O           0.62693271924041   -1.11339782008867    0.68286908732514
O          -1.04914179671077   -2.72084744654696   -0.07419035534616
O          -0.16927823052881   -1.03084015809092   -1.57450106753684
O           1.25192094317334   -2.86452221675843   -0.85059237031506
H           0.78491255801362   -3.57988746357642   -1.26915446496226
O          -0.23775870778017    2.51611895372540   -0.58045492739798
H          -0.51731838992729    3.30513953768664   -1.04643482295981
O           2.85040604486240    0.26138219678388    0.29472206208500
H           2.33901023643497   -0.55091254997511    0.47861201001008
O           0.94760798416194    1.43621477637060    1.74952675774174
H           0.61660863310477    0.53941802607786    1.59032713215379
H           2.49880206486694    0.88996949624728    0.96414824501815
H           0.46313098277346    2.01001439160074    1.14234954596124
O          -2.05340231344655    0.73851916453104   -0.74685388672265
H          -1.56081140065243    0.04112419755422   -1.21194827269161
H          -2.24414860275168    0.34648303259861    0.14453612329007
H          -1.02441071805998    1.86739194353325   -0.61270980760181
O           1.41644834395620    0.88652988439814   -1.65482205609885
H           2.12955129226309    0.65881695848618   -0.89214399489129
H           0.78473525565679    0.04913076080941   -1.69990475903733
H           0.81907030095348    1.62638213165532   -1.27327732609199
N          -2.21389550822840   -0.64459956501832    1.53154868617143
H          -1.56189123147735   -0.41760427515171    2.27220129543910
H          -1.86759095213015   -1.48709309234831    1.07520819741582
H          -3.10223616512788   -0.86925058632685    1.96291324419711
