    26
        -50.45282144  Gyration_radius:  2.40494663832 Dipole_moment: 1.361
 S           1.06273776357800   -1.49977171378695   -0.61000941842493
O           1.13822576618504   -0.68057657377359    0.57996908638195
O           0.56430631496640   -2.82982405827625   -0.42885882115884
O           0.37117744292152   -0.76571925011996   -1.68741459307408
O           2.56805156315759   -1.63079731299948   -1.11142595816031
H           2.54607585312724   -2.42798696209091   -1.63004336616224
O           2.27675067552564    1.70147105028123    0.45050865759984
H           2.28348821910032    0.72660965627438    0.51802396063604
O          -1.55681464006457    2.05182282273124   -0.30194653259868
H          -2.22433261134547    2.61981465348407   -0.68878008137296
O           0.07445644960296    1.49958820666340    1.94170384292077
H           0.26891824305328    0.59062864856602    1.66747906863249
H           1.65836435911634    1.96015531814348    1.17006484056756
H          -0.65517160082741    1.79556953424727    1.38255957512329
O          -2.14680384075278   -0.38460918535994   -0.74941536191629
H          -1.87633856079902    1.09325908301691   -0.44230058308919
H          -1.36876667782124   -0.65115943153940   -1.26799661143931
H          -2.07887809853948   -0.92183473461752    0.08205395587872
O           0.68707228071031    1.69479692763111   -1.47834932705665
H           0.59880809361045    0.66229792279316   -1.64649623438819
H          -0.20413109746339    1.95120778898647   -1.04260210854426
H           1.42863168477733    1.79223456788577   -0.71488582705722
N          -1.49333709201128   -1.90381977853469    1.34713994072968
H          -1.04696674681122   -1.45599538608112    2.13796549893888
H          -0.76088839294481   -2.37019192408062    0.81422463290319
H          -2.11463536031799   -2.61716987946095    1.70883177422159
