    26
        -50.45282150  Gyration_radius:  2.40491782486 Dipole_moment: 1.360
 S          -1.02798099205085   -1.49468210002250    0.67791853327972
O           0.00778747262198   -0.68175382270536    1.27705873085833
O          -2.35966664648911   -1.26999419044185    1.15362987821542
O          -0.92454935930477   -1.44401643069999   -0.79336895049526
O          -0.64370042800494   -2.99189542514400    1.05904183514518
H          -1.47816213338783   -3.44382909969478    0.99288255832445
O           2.54045857181327   -1.16164245418434    0.69106169698265
H           1.70213815723738   -1.32579199297056    1.16557008145836
O           1.09328638981388    1.45170867503405   -1.84895379015670
H           1.22661690942837    1.85929787156520   -2.70565472842112
O           1.81429765769724    1.39719413779970    0.88485429619208
H           2.68510577292111   -0.20050073122167    0.84113934379167
H           1.64099235545389    1.69427716353328   -0.01758584145397
H           1.02901116781481    0.89871343099452    1.15689795693640
O           1.41996084874594   -1.06712431049020   -1.54112579381481
H           0.43520868941703   -1.30758267643103   -1.26835182186751
H           1.38342126553440   -0.06202472102501   -1.73714153381363
H           1.99306648690329   -1.17291235287299   -0.64511535749653
O          -1.39970794948114    1.15181061205760   -1.42641623108649
H          -1.64614742160425    1.48200209208530   -0.52367665065790
H           0.08492148853582    1.42288128274771   -1.69648603831214
H          -1.43837306095971    0.18386676850546   -1.34316655907927
N          -1.96784949527895    1.57462674102456    1.14806687975137
H          -1.20152172348226    1.78642241400230    1.77504732760007
H          -2.20403385244807    0.59301363460150    1.28465325015772
H          -2.76458015132741    2.12793549377348    1.43922091788882
