    26
        -50.45282148  Gyration_radius:  2.40493289341 Dipole_moment: 1.361
 S           0.69120812725273   -1.61649221565884   -0.81316549212930
O          -0.15728872118013   -2.76516120547353   -0.91704780215904
O           0.17616903472613   -0.39080334615764   -1.38330315683965
O           1.16871514955833   -1.37408109103379    0.56204553324892
O           2.00867213573968   -1.93346552106019   -1.64886366416632
H           2.11128222567341   -2.87138751964237   -1.52762028594422
O           1.72901218427201    1.74543008587043   -1.49861571296138
H           1.40331744707307    0.87824604305681   -1.80970646456967
O          -0.24526920701801    1.75828479254188    1.88995539897299
H          -0.26784914198123    2.12437038346468    2.77500214804052
O           1.96124837379095    0.96643303006848    0.86502290660683
H           1.97285351945880    1.36188688850196   -0.12784812368260
H           1.13980442009626    1.37342564385077    1.32273726400224
H           1.71308946403059   -0.04761640336259    0.75483807785135
O          -1.05329052233286   -0.65585445788037    1.94442031193645
H          -0.25503948483950   -1.10525410979582    1.61854144444929
H          -0.64630778589595    0.82244809996319    1.95395646157920
H          -1.72805775951131   -0.81695108588790    1.23496081891912
O          -0.82649252469773    2.14865513525224   -0.85018547109018
H          -0.77533598280006    1.20619579510005   -1.07010604793722
H          -0.85310985583903    2.19546703984199    0.11405392946923
H           0.89952544370684    2.26737755622304   -1.41695969567237
N          -2.47716210397152   -1.21196030296629   -0.24498434236560
H          -1.75849600579300   -1.85044074191472   -0.58240812908961
H          -2.58104722137481   -0.48513097198105   -0.94220703840022
H          -3.35015117826334   -1.72362153076375   -0.20251285801048
