    26
        -50.44772979  Gyration_radius:  2.51298549503 Dipole_moment: 2.774
 S           0.11141176745998   -1.20089608396440   -1.73519797024048
O           1.57495975514901   -1.09212072360218   -1.60503571570263
O          -0.40127656091086   -2.36056782936175   -1.04511481265132
O          -0.55396277924085    0.03409692519853   -1.38674579019375
O          -0.14437263027150   -1.43356816819023   -3.27810366560863
H           0.25147248748152   -2.29040776421617   -3.39590903280334
O           2.40024048356962    2.42078408151069   -0.06450650944215
H           2.73451408286770    3.04660840136675    0.57978939461211
O           0.52587845123989   -0.04937667557382    2.09691288004686
H           0.75086319158294   -0.31934243549539    2.98861948391623
O           2.46708519479057   -0.07781807643639    0.43511325064208
H           2.10097034224490   -0.55623879630809   -0.47405735259583
H           2.56860033296188    0.91408093311407    0.19323759623589
H           1.70239764489284   -0.11918252406074    1.11672603180250
O          -1.29445961643648   -1.62728298947334    1.33986091916180
H          -0.97736441587804   -2.03212315879413    0.50500903877016
H          -0.21605172165056   -0.69869822926842    1.79276410885430
H          -2.04068734222886   -1.04623839767162    1.05807964483727
O          -0.14856572446242    2.04793885496997    0.33778068535840
H          -0.36178654753930    1.42911568559392   -0.38691622885421
H          -0.12475298045589    1.49449099860431    1.13074896818258
H           1.40433246791444    2.43968035024592    0.00165073237328
N          -3.00634931010615    0.10335493319212    0.15513042920378
H          -3.15104383348150    1.05052312148467    0.48244476731631
H          -3.87115325244372   -0.21540000201949   -0.26271446510847
H          -2.30089951634586    0.13858755899480   -0.57956638774847
