    26
        -50.44773017  Gyration_radius:  2.5135968556 Dipole_moment: 2.767
 S          -1.95648265406106    0.54141952668221    0.58181218786337
O          -0.69390394448504    1.23908588916754    0.49015062586990
O          -2.50783167812997    0.15198820310421   -0.69437804271762
O          -1.88911519665288   -0.59569724662915    1.51588588364955
O          -2.98440685036236    1.54822694310970    1.23723295446368
H          -3.79087034080786    1.04903674889877    1.16513901126713
O           1.81750383436406   -1.00744610635249    2.71018414432293
H           2.67025331196287   -1.43122788321651    2.81867556536807
O           1.07682410700242   -1.61978705562363   -0.94383194142971
H           1.33014695426564   -2.38803494704074   -1.45787568317431
O           1.89820720467685    0.56708463737714    0.63422110954422
H           1.00078294859936    0.95201050048121    0.65065096213705
H           1.93531618019444   -0.28711018843727    2.02903727222956
H           1.87160678105957   -0.08198171774234   -0.08247552442137
O           0.00384329220123   -2.13353691194575    1.31796982634420
H           0.69193183933017   -1.75952034803395    1.98080326461690
H          -0.86456941079646   -1.48095903516780    1.41397112331231
H           0.39693927481000   -1.96368786895068    0.38650972815953
O          -0.53070944000256   -0.32106279378505   -2.39467379288833
H          -1.34680512946068   -0.20672463714386   -1.86335535028143
H          -0.15172262011808    0.58837189730835   -2.45271744495481
H           0.41943661784937   -1.09477724976110   -1.54127437988432
N           0.37180167679688    2.20368959055346   -2.02433768933191
H          -0.04591726775890    2.10907428546240   -1.09950144055679
H          -0.07151873856367    2.98851995239457   -2.48417527188748
H           1.34925925808292    2.43304581529305   -1.89364708761761
