    26
        -50.44773025  Gyration_radius:  2.51360324197 Dipole_moment: 2.771
 S           1.09425451875739    1.30785370229067    1.24547972897627
O           0.08883846305216    1.26248375528849    2.28052646979495
O           1.36195259456926    0.02889023964929    0.62754902911111
O           0.80094563335663    2.35000306133312    0.24638299871521
O           2.44057553857032    1.76967854164353    1.93413762587681
H           2.14738431904899    2.55311643899419    2.38690696287839
O          -2.00113526516963   -0.29973400190295   -0.76273963264745
H          -2.94993883104107   -0.30020788772337   -0.89825689605439
O           0.63915017689804    0.66565349546097   -3.28732926539827
H           0.24725338584139    0.37830446188837   -4.11340692958687
O          -1.66042257319108   -0.64644098296888    1.71516273056683
H          -1.10719014448058    0.10224627732757    2.02306980794767
H          -1.86881006627091   -0.44011336630269    0.25089305993831
H          -1.06632503400976   -1.43100375756448    1.78876590006701
O          -0.79844013909871    1.82093375145653   -1.52837643942200
H          -0.10164329259134    2.09523403991090   -0.73601462923457
H          -0.20868374268373    1.47804018077181   -2.29482757232356
H          -1.31751336241557    1.00305891264213   -1.19246273995401
O           0.52084964453719   -1.28002374342377   -1.55648690422829
H           0.96971434269564   -0.87827235939434   -0.78778966700141
H          -0.41882849612157   -1.25871946710067   -1.32826211171102
H           0.74030609937729   -0.14646609223132   -2.71555438145907
N           0.34817135680640   -2.46109306847493    1.70747293046274
H           0.72928779507419   -2.82014558310704    2.57336243585930
H           0.92390094127587   -1.67136039869426    1.41848844069598
H           0.44634615721359   -3.18191612977024    1.00330902812775
