    26
        -50.44773023  Gyration_radius:  2.5134985024 Dipole_moment: 2.772
 S           0.72641914420939   -1.64007774574270   -1.11612432244352
O           0.34753560582044   -2.58320020268763   -0.09086472794742
O          -0.25161877282448   -0.60238053894321   -1.35275234070286
O           2.06956366619858   -1.08450897644540   -0.87588840123686
O           0.85710468511102   -2.45603149066649   -2.46405184271029
H           1.43324395121502   -3.16092599309211   -2.18847495647854
O           1.78636086242330    2.81939765102697   -0.71649165459159
H           1.83195006592539    3.69432484612440   -0.32797592281086
O           0.07179367097498    0.82608907872139    1.99668417186550
H           0.15541776084374    0.95639271448757    2.94253363308536
O           2.27948814986409    0.76631907754892    0.71088490749881
H           1.41564409473070    0.75145476975467    1.26273707252672
H           2.22190313527363   -0.07405636757404    0.01835288924492
H           2.21559106134496    1.60288004401659    0.12019243792457
O          -1.16266671581456   -1.35786636074098    1.70963987746461
H          -1.94150023928947   -1.14310523045913    1.14278900166574
H          -0.59724796161505   -1.91839725472924    1.13738855525591
H          -0.43157677200904   -0.06786785783334    1.88649173694504
O          -0.64760294079220    1.91053227976948   -0.50446330574895
H          -0.67496553259168    1.69344219817266    0.43773899506194
H           0.81927841667621    2.57998059285024   -0.78107267113271
H          -0.56846319244737    1.04687830300939   -0.95352600776415
N          -2.92313789226310   -0.69547236466919   -0.23679958133001
H          -3.33871110483147    0.22389228312281   -0.32159950376712
H          -3.58893954914261   -1.36994322173257   -0.59138352516035
H          -2.10486359698083   -0.71775024328868   -0.84396453471163
