    26
        -50.44772976  Gyration_radius:  2.51296750926 Dipole_moment: 2.774
 S           0.12918893522121   -1.63831974765716   -1.32841327360541
O           1.59093004021076   -1.52014614595001   -1.18666012886701
O          -0.42902957010162   -2.55190964930885   -0.36007592407024
O          -0.51571628736939   -0.34504327661551   -1.35845157399125
O          -0.09091521026946   -2.28747258567478   -2.75328567502162
H           0.28768136106314   -3.14913089111248   -2.61564753585972
O           2.45741551476201    2.27009847384970   -0.65783051678621
H           2.78917074895890    3.04537173810305   -0.20243493224901
O           0.46860081807519    0.52859230199005    2.04369664040050
H           0.66339310844680    0.51422321216351    2.98204851031407
O           2.45212387345539    0.00877751830962    0.51849188539738
H           1.66880489594334    0.17058950728256    1.15979268091677
H           2.09914835442281   -0.69841216512234   -0.23304249843800
H           2.58337437829211    0.89234216842236    0.01378734282008
O          -1.36778819246550   -1.16971578686555    1.69711764893228
H          -1.03827047788755   -1.79586927832381    1.01831864435723
H          -0.28010089805292   -0.16831378680065    1.90840713002464
H          -2.09229270115592   -0.67879897713274    1.24109007311188
O          -0.10923729212383    2.06306450030188   -0.24952485261961
H           1.46082925288955    2.32188020913364   -0.63140172070835
H          -0.31760055338323    1.27020892358481   -0.78012640114294
H          -0.11945744276313    1.75202946577304    0.66634206244171
N          -3.00603017267281    0.18846607841098    0.02359121720618
H          -2.28055641356185    0.00690387636941   -0.66881198473764
H          -3.13702800179267    1.19141070556986    0.06989102559768
H          -3.86663806847865   -0.22082637880889   -0.31686786363387
