    26
        -50.44773025  Gyration_radius:  2.51352811435 Dipole_moment: 2.777
 S          -0.15388313878723   -1.91665997101979   -0.87455139181984
O          -0.08091067393284   -0.56690445765139   -1.38665040889464
O           1.06016524577591   -2.37149861610208   -0.23931293900172
O          -1.32870290135179   -2.11226324714185   -0.00754124552013
O          -0.40216390572110   -2.86095318197909   -2.11832486073171
H          -0.33839093465712   -3.71552454457515   -1.70564722046586
O           0.37226757864694    0.94133253981128    1.90968324616938
H           0.64895397804319    1.14145271590061    2.80524661497716
O          -3.09989730172345    1.34851750548811    0.47757117167348
H          -3.42562571652583    2.11711006993135    0.94844483942446
O           2.30098824471972   -0.30199417755901    0.85615013556605
H           2.51866161075249    0.20323414330430    0.03683312863543
H           1.16338107722458    0.43240886344780    1.48555331672131
H           1.93299308461463   -1.14833828511512    0.52469926247186
O          -1.77125556423772   -0.43663111719078    1.71993853742017
H          -1.58611246678530   -1.21281865357875    0.97715806409291
H          -0.89135426147987    0.07741259351714    1.83299561721847
H          -2.41726351463084    0.21821091865773    1.26537649226479
O          -0.74365257769176    1.87714783315894   -0.50452086341414
H          -2.29161633074441    1.64007087245289   -0.03073111560716
H          -0.20447649217231    1.84127711446827    0.29773648589179
H          -0.54190998855127    1.04465728568072   -0.97356438976051
N           2.41329961788102    0.89588906187174   -1.56879529392056
H           1.56156948973293    0.36827225080749   -1.75544885136054
H           3.10307382857362    0.62152618534919   -2.25645976165964
H           2.20186201303179    1.87506630806655   -1.71583859037056
