    26
        -50.45683230  Gyration_radius:  2.43352172764 Dipole_moment: 3.396
 S           0.29251495520169   -1.70689085493877   -0.62664936083124
O          -0.55352972683662   -0.79645615142306   -1.52939833834981
O           0.49435881520520   -1.06531515576221    0.65338176111209
O          -0.29788227912257   -2.99496099581945   -0.59947776475423
O           1.67383580206539   -1.77008052356517   -1.33098477946542
H           2.12842323472401   -0.89576190208443   -1.19509483903462
O           2.78182596423773    0.56834207469937   -0.90258776690327
H           3.73743794797519    0.53772588360523   -0.97435035315714
O          -0.42080179935899    2.32850379133957    0.96314604557022
H          -0.93687145764023    3.10682848236676    1.17590409764613
O           1.96720514827451    1.01025874704167    1.50807669828977
H           1.25679007684686    1.67176631251873    1.47265950438101
H           1.50090701114675    0.15692722825941    1.50284671557796
H           2.56887223839126    0.77857052136782    0.06029548109227
O          -1.66221701262762    0.16228973437095    1.70893132177014
H          -2.32345743932067   -0.30292827937867    1.15186775007735
H          -0.86726629276442   -0.38175185075486    1.58973321934367
H          -0.96291028553378    1.54124463357423    1.26109382846182
O           0.28853284428529    1.58149063305267   -1.50427000176999
H           0.01417373133759    1.94081814386415   -0.62977766638218
H           1.24903347762184    1.46393581846032   -1.47011825873250
H          -0.24098673273370    0.18418448404624   -1.54080262979391
N          -2.88246544176523   -1.58291769336839    0.01102338342064
H          -3.69712531232587   -2.14699872680308    0.22404343319441
H          -2.08728258201591   -2.21054659325960   -0.07205544271214
H          -3.02111486526244   -1.17827775140382   -0.90743603804695
