    26
        -50.45683223  Gyration_radius:  2.4335557242 Dipole_moment: 3.399
 S           0.88248260269420   -1.42162579840464   -0.77003407434543
O           1.29208734045947   -0.09926211549877   -0.35232997519646
O          -0.65098238196437   -1.51111755441368   -0.75944816157062
O           1.35432896136427   -1.85753718412771   -2.03325900089478
O           1.33306740251699   -2.41233461576982    0.33620086330844
H           1.12726763997994   -2.00205900604559    1.21865788608888
O          -1.15813042370237    2.03538549165571    1.02134237176110
H          -1.81914335398178    2.72566287605721    1.08387703005311
O           0.75535027554647   -1.23091183427213    2.60583870854458
H           1.28192015925422   -1.56311512395479    3.33496840901529
O           1.31684300180287    1.21369386217204    1.98954016097915
H           1.02335349746755   -0.26880816937666    2.46781292783270
H           1.57350730104554    0.92555833480470    1.09696463522278
H           0.48270379614427    1.69316411985989    1.85598029624764
O          -1.62187895560268   -0.57448079664979    1.37214586175317
H          -1.52891646693456    0.40201666335756    1.28877383139498
H          -1.08310524674768   -1.13353996180702    0.09516977003854
H          -0.98057050365354   -0.86114058673026    2.03857961004211
O          -0.12927877401395    1.95350534427364   -1.37123845227032
H          -0.52189363226529    1.44344785188491   -2.11262862679262
H          -0.82161259083915    2.05262848056418    0.07849635679050
H           0.59705958147972    1.37825366472836   -1.08202565996685
N          -0.66840917696160    0.02662306199071   -3.21908490029598
H          -0.67366208059302    0.15263111003786   -4.22473424050966
H          -1.49249926649945   -0.50885312674647   -2.97278181422304
H           0.13011131400929   -0.55778502758753   -2.98678380300684
