    26
        -50.45683224  Gyration_radius:  2.43361106121 Dipole_moment: 3.398
 S           0.97395100717218    0.10276659823696   -1.56034358876833
O           0.06902352443079   -0.88206394685017   -1.01078739021444
O           1.33435310299519    1.12996588441801   -0.47648601809986
O           2.17190879090000   -0.39258396417492   -2.13294981009446
O           0.17902949024225    0.91878256970233   -2.61414340094097
H          -0.71950423901684    1.11655720471838   -2.23608026631237
O          -2.16237890648004    1.37237963347095   -1.52202493414815
H          -2.84172487098802    1.55040729061175   -2.17476163537928
O          -1.34351312303217   -0.24502380485468    2.15981841017195
H          -1.47788936374751   -0.26941236654044    3.10780052119732
O          -2.51593456952638   -0.86729228008472   -0.28518615863186
H          -2.40802303672423    0.50211768364006   -1.07606808786119
H          -1.65882559200333   -1.18261129621896   -0.61919964216748
H          -2.36397126457298   -0.71896978872285    0.66263914404696
O           0.65318050909926   -1.76967891100527    1.46786180910501
H           0.41298304648894   -1.72553717646101    0.52847197267934
H           1.58784808926880   -1.46915389509951    1.46243873988968
H          -0.55759370898423   -0.83603381336944    1.97162893465897
O          -0.71321464581523    1.94046473914275    0.75427266521487
H          -0.97513228986681    1.19180653020662    1.33744061677117
H           0.52247868120709    1.48035620283996    0.05033089902883
H          -1.37512280370898    1.99143218909447    0.04940281610059
N           3.09826254953197   -0.85520393378422    0.69107833826377
H           2.89698738284954   -0.87176026470109   -0.30510811133209
H           3.98220375706299   -1.33038152937851    0.83281834610974
H           3.23061846321246    0.11867042516832    0.93713583070972
