    26
        -50.45683223  Gyration_radius:  2.43353125746 Dipole_moment: 3.397
 S           0.05522679680910   -1.71167633104075   -0.67712379514496
O          -0.10720795288225   -1.16850758415711    0.65315697240424
O           0.50052719368169   -0.59705320188159   -1.63571292513334
O           0.94733592617763   -2.80525702563970   -0.80622707929898
O          -1.35532546268584   -2.11395263181349   -1.18390826507035
H          -1.98944968085505   -1.38881544150428   -0.93579433488453
O          -0.03802275198458    2.33855872241821    1.02685242002122
H           0.29222667610456    3.21904289238733    1.20846060128175
O          -2.93820694386034   -0.14782322712017   -0.47094784088135
H          -3.85531220581367   -0.42084612271597   -0.41048718625465
O           1.80501756273484    0.54997130899715    1.46728418567111
H           2.47077736190829    0.28149463260909    0.79745464940339
H           0.72269844918348    1.71125873367450    1.20086704343651
H           1.16359121498100   -0.17751823421361    1.42918404291304
O          -0.89856692904517    1.48335263231823   -1.35576794404175
H          -0.04658520363468    0.27023560072634   -1.54667158538299
H          -1.78232653309331    1.12214660921509   -1.19434873225271
H          -0.59533699119990    1.88347000459634   -0.50892674830832
O          -1.90940893039351    0.44072223528004    1.82380104023542
H          -1.24979265102309   -0.26374108008415    1.70434314848827
H          -1.40169568103784    1.26318944731131    1.72762615910520
H          -2.64327141041243    0.09073584932971    0.46323061887187
N           3.15566894415639   -0.78871559342742   -0.48232575594632
H           2.54001999034547   -1.59740540591584   -0.48966263153183
H           4.10804252677894   -1.12934088894799   -0.41815038624814
H           3.04937667507189   -0.34352590041094   -1.38620569145326
