    26
        -50.45683227  Gyration_radius:  2.43355863995 Dipole_moment: 3.398
 S           1.19694561700946    1.29313110092126    0.53597384740189
O          -0.21530350555343    1.78879064992033    0.19044981466856
O           1.33235829925654   -0.09185542391516    0.14307031490057
O           2.14187314014151    2.19775288804328   -0.00917512581810
O           1.25156322519685    1.33765444111436    2.08620586924425
H           0.69873128070337    0.58778833733165    2.43489899070353
O          -0.22236901801662   -0.67634232538546    2.89294229946007
H           0.00574517873107   -0.96383870666883    3.77869882936871
O          -1.58537032134605   -1.83692479035928   -0.79922955720667
H          -2.26222382455639   -2.22818710483841   -1.35251187313990
O           0.28206403568431   -0.74639037625420   -2.25295191424771
H          -0.91616528300986   -1.42679287613712   -1.42085191851878
H           0.23543589881423    0.17273652139740   -2.59496144455200
H           0.87742131030282   -0.65716419753279   -1.49155407557105
O          -1.98404916565627    0.15392154635072    0.94063008816029
H          -1.92743316733626   -0.59469837790138    0.30384279324311
H          -1.62974463360548   -0.16711069878371    1.78264449256665
H          -0.96398470651546    1.14386640997422    0.47858677315665
O           0.37819666222690   -2.41852746644817    1.08339691121602
H          -0.36983816807405   -2.48780053444335    0.46763051500209
H           0.97392229831534   -1.77347835544244    0.66548612828883
H           0.01729252266282   -1.43269171611674    2.27070035588647
N           0.61227248246417    1.93654692806863   -2.58616114863085
H           1.29531844226029    2.04375660354526   -1.84116314612714
H          -0.20807638377686    2.45490364042740   -2.29496652023443
H           0.98541781368008    2.39095387313242   -3.41163130921956
