    26
        -50.44772989  Gyration_radius:  2.51297557691 Dipole_moment: 2.774
 S           1.59341630826829   -0.76919111259958   -1.15532729338095
O           2.54244245246717    0.15375054202507   -0.57962011354634
O           1.46603928547917   -1.99458154202285   -0.34732234396977
O           0.30599422315338   -0.18241804913777   -1.45123039415896
O           2.19926161622648   -1.25113591676060   -2.53402782444679
H           3.06174706827496   -1.54086624811934   -2.25668592772903
O          -0.46720572718358    0.54717008797483    2.03922004608596
H          -0.42475397754779    0.81060610978037    2.95978996504922
O          -2.31171040631436   -2.42933787639566    0.61682989967219
H          -3.07510242847196   -2.49318588714771    1.19277406325912
O          -2.06851630493444    0.02707194522401   -0.22206843081771
H          -2.35341829381647   -1.53409876642131    0.17713810554173
H          -1.72845546930371    0.45494104638612    0.57602122641453
H          -1.29125233685901   -0.05297719234757   -0.80780687235137
O          -0.01397030507224   -1.92915915618858    1.60011268927518
H           0.67141333010105   -1.98237774537202    0.75345919756538
H          -0.14803867372264   -0.93401213822323    1.80692895776975
H          -0.91451037622068   -2.25983688443029    1.23636828785382
O           1.23553974788808    1.97259638622716    0.83710881952177
H           1.83655226824706    1.35092054771274    0.37477895987195
H           0.73695105010351    2.41314257856473    0.10828078265495
H           0.23149115852832    1.13138878659465    1.55425573659019
N          -0.16069809711825    2.67623698812192   -1.37304769967714
H           0.24498907185884    3.27076673447318   -2.08437381774828
H          -1.16045729442443    2.83631400739073   -1.36868632472668
H          -0.00774789027824    1.70827276477122   -1.65286971424511
