    26
        -50.45683223  Gyration_radius:  2.43356322274 Dipole_moment: 3.398
 S           0.62606540276274   -0.96895506353353   -1.43631102326637
O          -0.28003786835187    0.22383529988737   -1.77669638730858
O           0.60786062865871   -1.19759799508937   -0.00863024180036
O           0.25940136265148   -2.06625515754381   -2.25475939977470
O           2.05353897187794   -0.48454263909450   -1.80506234419751
H           2.34218235040375    0.17342174894049   -1.11712646146089
O           2.71346641472202    1.22748835366180    0.06937822136361
H           3.66321004022643    1.32798969580202    0.15379668042097
O          -0.88470448946983    1.25512095058838    2.04234274453524
H          -1.54016772928176    1.70788545255128    2.57403288373280
O           1.63581328659634    0.08029232599858    2.11712928474383
H           0.83054875445761    0.57019074521652    2.35170315135924
H           1.32075138333394   -0.63893358608852    1.54349948261977
H           2.38799649177029    0.80569734698476    0.92538608793365
O          -1.80464746456028   -1.02676201809030    1.18415316519912
H          -0.92274108893777   -1.32348610554374    0.90793371255620
H          -1.31056338263405    0.40194557935096    1.73702253727357
H          -2.32927901941502   -1.12384492989050    0.35995064862288
O           0.14547764810443    2.18207852017198   -0.24441567970024
H          -0.13702032288512    1.04144179961581   -1.16780792247864
H          -0.25801002134403    1.92683473250788    0.61649720856566
H           1.10575180923466    2.14947315213195   -0.12442737229960
N          -2.56700757549550   -1.51707703552165   -1.38419260640259
H          -2.69254005824044   -0.65970280250535   -1.90913307545526
H          -3.29119543794991   -2.16368394672691   -1.67502671122618
H          -1.67415009622401   -1.90285440377994   -1.67923657355880
