    26
        -50.44772979  Gyration_radius:  2.51297663967 Dipole_moment: 2.775
 S           0.97587875252565   -1.68652283153237   -0.81773003561080
O           2.21946450478085   -0.90354389516504   -0.71200253242956
O           0.74122746300122   -2.47842418408789    0.36621042085258
O          -0.14694360784715   -0.86458238681501   -1.20893128718935
O           1.23146335663822   -2.69907201920951   -2.00497701694218
H           1.91898667630503   -3.23992279925617   -1.63143530438174
O           1.32518600357783    2.87717646717531   -1.26134725863282
H           1.23748093342861    3.80557408587629   -1.04020615942639
O          -0.05879587943330    1.17317544531674    1.81560974163061
H           0.00484818003400    1.48126992651197    2.72097112321623
O           2.13141127500924    1.22030272949329    0.49982496354919
H           1.93785972098990    1.91355064043101   -0.23135112501982
H           1.28000927535223    1.17395001906591    1.06905960793398
H           2.20821292066469    0.26732514775319   -0.02493712506018
O          -0.94334072063008   -1.18796289582887    1.95378557833270
H          -1.74442461038327   -1.19899937884833    1.37758345571926
H          -0.29762940019959   -1.75155305663455    1.47749679137996
H          -0.41839798940547    0.20814548942150    1.87896510671578
O          -0.94079280044618    1.66705919931895   -0.81622251311706
H           0.40584875217245    2.48820678660714   -1.25228295091710
H          -0.72555163708324    0.75923626855449   -1.10454667071095
H          -0.93275989383951    1.62343511054133    0.15005469868014
N          -2.77975034042450   -1.15968944263139   -0.03519842645511
H          -3.32804154138099   -0.34183132066493   -0.27112605216309
H          -3.33589370709750   -1.97761137380335   -0.24914535936068
H          -1.96555570641189   -1.16869174418681   -0.64812164000309
