    26
        -50.45683223  Gyration_radius:  2.43360409425 Dipole_moment: 3.399
 S          -1.20874646706378   -1.15786896054993   -0.76930066629902
O          -0.17724871266302   -0.29346903518499   -1.29821827384650
O          -1.45151022351396   -0.82149935744783    0.70971053986365
O          -2.45237755039902   -1.14331300931033   -1.44870643500644
O          -0.63262914918112   -2.59861206240405   -0.74635985127992
H           0.30172775466067   -2.55073522572814   -0.40848068864086
O           1.67439886605480    1.66245279697248    0.98080345163562
H           1.95604141966615    2.41663014473012    1.49967056628569
O           1.82186858681041   -2.35263693852517    0.14537626135723
H           2.38053080741007   -3.08651136408913   -0.11651615527250
O           0.71547282767279   -0.62236362221079    1.98583393127695
H          -0.58770069840459   -0.72797411419816    1.26169981814257
H           1.25610043768357   -1.32228660108173    1.59164302459768
H           1.10503617690744    0.23468407851103    1.69808162275640
O          -0.32041621907785    2.29904714439698   -0.57015972682338
H          -1.25938854056855    2.26983655956235   -0.28484097377081
H           0.90181117116139    1.97528484757178    0.42609491310221
H          -0.23200860251967    1.48123668101541   -1.08544455394209
O           2.48441649041351   -0.12832023534906   -0.98791845260256
H           2.18069382202762   -1.53316701739223   -0.31967607884419
H           1.60412030286661   -0.07974977172473   -1.39820698812683
H           2.47395216806279    0.57145963531330   -0.31436277834698
N          -2.90244354658477    1.53619821625814   -0.15795168641814
H          -2.85772142129359    0.71404404606696   -0.75394864555323
H          -3.72664246126001    2.06275837410940   -0.42376009076414
H          -3.04733725887554    1.19487479069505    0.78493793652032
