    26
        -50.45683224  Gyration_radius:  2.43359338979 Dipole_moment: 3.395
 S          -0.37027337363457   -1.78212659738553    0.28237820185492
O           0.81375934841926   -1.06066353343056   -0.12796279030133
O          -1.58661092648358   -0.84546084760735    0.22806134574995
O          -0.67241604504954   -2.96147531715015   -0.44303283999115
O          -0.20679206264355   -2.11255871855107    1.78982475113219
H           0.15743385693381   -1.30574873007822    2.24354171742283
O           0.76295832820456    0.06763274109829    2.87909049382232
H           1.22390914472254   -0.10907645327623    3.70101977736070
O           0.58340452118765    2.44442003698768   -0.46126447804803
H           0.48204318447288    3.30630981019642   -0.86650515530588
O           0.52588075694786    0.56225363603345   -2.26222839885027
H           0.53542027769395    1.77618931572233   -1.20537338253311
H           0.85805585027963   -0.10111418936055   -1.63635129480456
H          -0.30289479453038    0.14964259835861   -2.58909692265076
O          -1.09904662129618    1.37535766739832    1.32086173393299
H          -1.42282903649528    0.07365027847194    0.66159290653811
H          -0.54649794175580    1.12164089904874    2.07442841909858
H          -0.51505931633751    1.85056659982989    0.68662717073648
O           2.33988785708910    0.84625707952918    0.98743080791962
H           2.07912372653043    0.07381671680204    0.45743218964501
H           1.92407224141565    1.59867587764560    0.53519956237307
H           1.45420313262566    0.39517013306428    2.22226405294297
N          -1.56717867331661   -1.13460198550359   -2.65870634267647
H          -2.41150010711213   -0.80074249262903   -2.20915591295430
H          -1.20451217230060   -1.87708245484959   -2.06685427236186
H          -1.83454114556931   -1.55093204036382   -3.54322131005354
