    26
        -50.44772979  Gyration_radius:  2.51298317947 Dipole_moment: 2.774
 S           0.27681289335500   -1.81752836378368   -1.04179500972957
O          -0.13301294021154   -1.23603929154963   -2.29790005574859
O           1.71798939929311   -1.63066195643569   -0.79922254858324
O          -0.51905192597121   -1.39763203476181    0.08941572220819
O           0.08532326871822   -3.38141745459140   -1.17484843937912
H           0.56900546327716   -3.55143789024224   -1.97602474666701
O           2.14304260613312    0.20145888976539    2.64428388754273
H           2.39561346594107    0.90263284539756    3.24684615732132
O           0.47465742482949    2.10332324209494   -0.16394133685507
H           0.70311372955513    2.97867241675396   -0.48051109562949
O           2.45036988573330    0.50987135544901    0.13281545542721
H           2.45681080961739    0.34832553880233    1.14599675211019
H           2.15797471886821   -0.44500373783064   -0.30558659918693
H           1.67673361086488    1.16043597683294   -0.03838620883295
O          -0.36418053456509    0.48883122290108    1.98970124103182
H          -0.49498306068701   -0.28790862467580    1.41249638487657
H           1.14900012941998    0.23566937618236    2.55899765024671
H          -0.30453693312696    1.23735752648954    1.37993395941059
O          -1.15626468823009    1.16711430947888   -1.84920935827202
H          -0.18959165281343    1.72565675734751   -0.85729843857750
H          -0.77859732722230    0.31468552589693   -2.15277837527823
H          -1.95022509911610    0.90606120076660   -1.32447386884257
N          -3.00431540175812    0.06227760484046   -0.20808211880780
H          -2.28758177613845   -0.64357778704107   -0.04455750779711
H          -3.82131702532703   -0.40744141530821   -0.57680003383779
H          -3.25278903115480    0.45627477735063    0.69092854239356
