    26
        -50.45683225  Gyration_radius:  2.43359907981 Dipole_moment: 3.397
 S          -0.67274753307299   -1.07197731426164   -1.33833285344078
O          -0.77562217683455    0.44200272830149   -1.57704157823423
O          -0.25239847170591   -1.31885540663557    0.02299436044649
O          -1.88791677957219   -1.67905038207224   -1.74232357911266
O           0.48409424519793   -1.52972596235551   -2.26589656898088
H           1.34011042066098   -1.21797849798468   -1.86650361409017
O           2.67969614868240   -0.66815351343760   -1.11805517341962
H           3.45275382148194   -1.16693897781177   -1.38799581978480
O           0.89044311287699    1.42405555826705    1.92527910095017
H           0.88911309202748    2.15184925505352    2.54791188256363
O           2.05792851717579   -1.03718913006060    1.36146346183210
H           2.54273571603632   -0.85209864385237   -0.13623893836706
H           1.85259328969865   -0.17345056109701    1.75555010174536
H           1.19307219486424   -1.38796956647573    1.08835243838756
O          -1.41599011775788    0.21158485747057    1.91404446708212
H          -2.17452848650487    0.49509621793385    1.35890889993159
H          -1.06161082895834   -0.54250341198580    1.41617000731416
H          -0.02461083846614    1.01943129439456    1.96342247217552
O           1.25775256786187    1.65953134694567   -0.71271415386644
H           1.97622061030235    1.04676731116615   -0.92698362930513
H           0.03628097330231    0.97287528871864   -1.23269334042062
H           1.16203458043275    1.65492353684542    0.26707767283317
N          -3.26032509004117    0.41847251921912   -0.07947366035113
H          -2.95601144043881   -0.41186325283815   -0.58050919740020
H          -3.06738191225981    1.20406394999403   -0.68944730318171
H          -4.26568561499686    0.35710075656709    0.03303454467323
