    26
        -50.45381447  Gyration_radius:  2.64819948191 Dipole_moment: 1.739
 S           0.37872071292984   -0.55396485159038    0.43930163080072
O          -0.34839616432255   -0.20530356595714   -0.76916036823209
O           0.13844777985422    0.32855899966304    1.54656151528721
O           0.05365418368005   -1.98813462249584    0.82320867385154
O           1.87171998884625   -0.58037432136742    0.13545385116682
O          -2.96121333200051   -0.77784322421854   -0.62644754774802
H          -2.04078368069339   -0.46907306842332   -0.73828555426626
H          -3.19017551512537   -1.25026871462035   -1.42900952672224
O           2.75677957895799    1.76896904565826   -2.44023834146878
H           2.14177123897179    2.08912027345295   -1.73079407722463
H           3.64263940368213    1.82790938006078   -2.07889213745135
O          -1.82794860233897   -0.14633230324514    3.30164762609002
H          -1.12321958390223    0.17567066041113    2.70614910430871
H          -1.40341791234101   -0.34345700242475    4.13861478620914
O           1.84229024718718   -0.69919093945138   -2.35960079527053
H           0.88512809846964   -0.56813316747148   -2.35343798319645
H           2.23614436304178    0.19155377836484   -2.56075329869357
H           1.97590797670002   -0.72678984044171   -0.88867014171662
O          -2.30366023268836   -2.11195693124019    1.58216388667423
H          -2.75301075668437   -1.67458410737727    0.82337461147791
H          -0.95923738547397   -2.11377600559722    1.16604144656514
H          -2.30406198126563   -1.44770835735010    2.31170094713740
N           1.03134971699402    2.33107151379083   -0.44440735040225
H           0.27336901827404    1.71324506501198   -0.71727418795010
H           0.63392053522034    3.25003974916057   -0.28821700598525
H           1.35328230401385    1.98075255769180    0.45097023673176
