    26
        -50.45683223  Gyration_radius:  2.43350674918 Dipole_moment: 3.398
 S           0.38976468581803   -1.41117426313321   -1.11790939450534
O          -0.78818816581621   -0.52298148467855   -1.54597952399351
O           0.80288694026055   -1.05343077281676    0.22085273394651
O           0.03535320031547   -2.76737114472915   -1.32662605380645
O           1.54230183322111   -1.00945716817574   -2.07627288908895
H           1.87298701886522   -0.11272155018759   -1.80050769707018
O           2.33992745322901    1.35051119418083   -1.25531901613201
H           3.23907242670957    1.54580812546878   -1.52482960767946
O          -0.52547919555297    1.89485266025403    1.63054544450362
H          -1.08741345879286    2.47218545966249    2.14847386307842
O           2.09942050582313    1.03682911115273    1.29696710745611
H           2.34595788410138    1.28151275055513   -0.24940608872093
H           1.30820839507034    1.51854881115915    1.58930752853908
H           1.78674287325920    0.12754152498420    1.15191605749324
O          -1.18256785533203   -0.60101457103997    1.98867274028085
H          -0.84426081884597    0.96174331481674    1.80444076328097
H          -1.88131304520031   -1.05679598110614    1.47099646454709
H          -0.36813916447358   -0.91711179490546    1.56567378066609
O          -0.35164392682202    1.90898801963439   -1.03750311767353
H           0.59274073126015    1.99780287860127   -1.23199269929124
H          -0.64685470920120    0.47758559844575   -1.34962035243124
H          -0.45010004788547    1.98833303812813   -0.06118721177354
N          -2.50096337015103   -2.12797113950605    0.15888115555442
H          -1.66386779291267   -2.53201611798713   -0.25232465460436
H          -2.92710187468422   -1.56171774584194   -0.56514988408253
H          -3.13747053226284   -2.88847873293490    0.36790057150641
