    26
        -50.45683221  Gyration_radius:  2.43359405687 Dipole_moment: 3.399
 S           0.11103818902587   -1.13736855953445   -1.44559505379526
O          -0.88931055333328    0.02069158098969   -1.57924239976720
O           0.59931501945243   -1.19952032093855   -0.08592026600215
O          -0.48845741683846   -2.31650134247804   -1.95405409003797
O           1.30572373061029   -0.71886577981176   -2.34317454769117
H           1.79798891610150    0.01059711980714   -1.87938733021996
O           2.53128505782898    1.18949934311186   -1.02573430524734
H           3.44752283016366    1.28568888592395   -1.29125043266649
O          -0.14943016502933    1.49556131899589    2.06744678875174
H          -0.59012379470321    2.01592123103324    2.73993456000664
O           2.26920013032601    0.30183505805128    1.38551799183153
H           1.79333870115742   -0.47432898208271    1.04379481937477
H           2.53726187959712    0.87407250168112   -0.06811386315409
H           1.58377772425129    0.82663611274797    1.83076577768701
O          -0.00976969429051    2.13683089578139   -0.52450825676750
H           0.93236177376630    2.10534616887451   -0.74574278648894
H          -0.56520290284714    0.90097967593206   -1.15530770299594
H          -0.07952823170787    1.98862999023385    0.44623638027422
O          -1.24704638433790   -0.85748086326548    1.84953572622031
H          -0.50967608662681   -1.19606352789100    1.31677405727496
H          -0.63126732376538    0.61867099782027    2.02935382157758
H          -2.02399174359821   -1.04206612418327    1.27838021622355
N          -2.84550113847481   -1.63145755892714   -0.21540787319899
H          -3.60720535127200   -2.29757951299604   -0.15869752895919
H          -2.10170906411836   -2.06077938799299   -0.75907343923364
H          -3.17059411135231   -0.83894893088645   -0.75653025298727
