    26
        -50.45683217  Gyration_radius:  2.4336301913 Dipole_moment: 3.399
 S           1.49781162028914    0.97628786873560   -0.44712119104724
O           1.35865903544378    0.60427233776106    1.03684357389067
O           0.27352786462610    0.64998750107056   -1.14398468241331
O           1.93565590097770    2.32093937635856   -0.53901453112194
O           2.59838014554743    0.02141255912951   -0.98119313344346
H           2.20706350740634   -0.89057012735184   -1.04967262655476
O           1.45976029006410   -2.33657691069078   -1.13216752525290
H           1.90335146197481   -2.91654554730246   -1.75356052062484
O          -2.13349684855643   -1.29368212512577    0.55500774189953
H          -2.91029832948560   -1.51977181707057    1.06763624905902
O           0.39147238712255   -1.70719253864203    1.33128326743192
H           0.80430443491488   -2.20041895575892    0.60753575638956
H           0.96218081727094   -0.33212091553229    1.19543024832766
H          -0.56289071929731   -1.61760741046012    1.10689871240539
O          -0.90044269942555   -1.63810928296393   -1.91489308728193
H           0.54311418606878   -2.15232515381705   -1.50943274881763
H          -1.50650818081124   -1.71215647550006   -1.15948550835103
H          -0.62223612513183   -0.70632788391515   -1.90911801588751
O          -2.01753705557055    1.27504654333453    0.13408319653582
H          -1.32674562847785    1.17381496600931   -0.54020887434928
H          -2.14726556026498   -0.29830998270185    0.44729482622627
H          -1.60913955304643    1.90886388013878    0.76299589063670
N          -0.28717793621930    2.96794230992173    1.38199541949959
H           0.42129463126637    2.93786900845758    0.65379675019373
H           0.13080211048990    2.54297662825281    2.20125272649172
H          -0.46363974717517    3.94230213765379    1.59779808615780
