    26
        -50.45381440  Gyration_radius:  2.64788192391 Dipole_moment: 1.724
 S          -0.76542011703676   -0.11179877218663   -0.21275117989937
O          -0.97849674257604    0.16479221491733   -1.69601677913687
O          -2.09469714527341    0.25287139211036    0.42690472072665
O          -0.48648064700650   -1.50857171222406   -0.02877163664900
O           0.26902948953399    0.77361155225564    0.29425425060956
O           2.04462192407405    1.25681604867980   -3.30444237419496
H           2.11916895769002    0.48404341244269   -2.68685354872119
H           1.71889167117691    0.90895037201001   -4.13618897280695
O           0.29944970820022    0.93047411211283    2.96800242919030
H           0.40888837655590    0.87676596703346    1.99835069300651
H           0.33094336587215    1.86165201320648    3.19527235291681
O          -1.28482191393019   -2.80647103841169    2.17333126201820
H          -0.88528154447942   -2.44450042764934    1.35825851384330
H          -1.94653945537526   -3.43999048748898    1.88975059947054
O           0.11685184730209    2.39837775932326   -1.92100333293555
H           0.88080670910042    2.13657025861601   -2.50151115788760
H          -0.63774867919422    1.12943906565798   -1.88233258810900
H           0.44050753000681    2.32993998987234   -1.01327748160496
O          -2.03271403180889   -0.34627958084979    2.83181125167554
H          -1.19900326060664    0.10309414313080    3.10039474297431
H          -2.13769804472567    0.01614780349601    1.47680854394964
H          -1.81421136003568   -1.30721624832845    2.78286035030264
N           1.96456014577234   -0.75157305499751   -1.50571629484741
H           1.73705466905967   -0.20882443423299   -0.67849766193634
H           2.76215957393905   -1.33357571946388   -1.27807356753346
H           1.17017895378787   -1.36474460909348   -1.65056312455581
