    26
        -50.44849473  Gyration_radius:  2.48587181016 Dipole_moment: 4.261
 S           0.32233117642008   -1.73946300917311   -0.86365172609974
O          -0.17018081392122   -1.72893528035431    0.52658245641325
O          -0.49947804388340   -2.53702140702680   -1.72707128246018
O           0.59126070874470   -0.38997397363698   -1.31815997973193
O           1.73944116449904   -2.46010834348057   -0.80228881617386
H           1.52473235586737   -3.35527928649871   -1.04350886340255
O          -0.57680590448736    2.23641726355585    0.71201359131398
H          -1.25070624230820    2.76160239252446    1.14541493783787
O           2.77996049636323    0.64714034828842    1.76302688203043
H           3.19769642889832    1.31514641387801    2.30898318843969
O           2.01141404399533    1.70969032822795   -0.48381837204587
H           2.66454982218791    1.04521145839328    0.85463457532896
H           1.63062326501670    0.92713661639415   -0.92871824007760
H           1.24975284303334    2.24935248573064   -0.23902447065644
O           0.28526154281115    0.18677358315544    1.97812446994394
H          -0.08809347213240    1.00539005339747    1.48761702768467
H           0.08683952952669   -0.67929147997599    1.34077426369631
H           1.30378978196453    0.30093315724527    1.98752754199724
O          -1.58222148561408    1.16357420960829   -1.36723545583646
H          -0.77904837492311    0.67502371814973   -1.62383515663456
H          -2.20859418084946    0.44146816478903   -1.11294347132807
H          -1.01066220887656    1.85725745122725   -0.13140337776116
N          -2.77824025355144   -1.13116160694693   -0.66571949568293
H          -3.69666252787638   -1.45395319657108   -0.94666988438017
H          -2.65850315979661   -1.35632558628314    0.31485558144088
H          -2.08845650111257   -1.69060448461971   -1.16550593385897
