    26
        -50.44849479  Gyration_radius:  2.48579421062 Dipole_moment: 4.261
 S           0.36531581195535   -1.38582551387878   -1.34970501818717
O          -0.39962698538706   -2.52301396272466   -1.77251618068867
O          -0.22843937517872   -0.11244633050491   -1.79828917461882
O           0.68276097679433   -1.32890760249896    0.06313045580534
O           1.76557793156048   -1.48393170287690   -2.09860125617568
H           1.55921003897730   -2.03186662398943   -2.84875500937424
O           2.64841170395501    2.05589504173313   -0.09664560356774
H           3.03234788626256    2.82460247327268    0.32815516646471
O          -0.60179791079997    1.39780641168692    1.87740664601394
H          -1.29969137856717    1.94017431972248    2.24698617269920
O           2.06184279218796    0.26673001394735    1.69857270333814
H           1.70615303441216   -0.44404559111719    1.12975301138877
H           2.60539278652107    1.33459189708820    0.59246248222537
H           1.29024936840923    0.63162378652198    2.14888155625838
O          -1.46287411371240   -0.98463148885071    1.61774672077650
H          -2.11467394014126   -1.03554058782313    0.87545723293768
H          -0.64859339740200   -1.33996374369757    1.21735780772038
H          -0.97641139124121    0.44891844241859    1.82572471529954
O           0.13951512826997    1.93548231024271   -0.51185282052609
H           1.15579139228425    2.05036901370508   -0.44493292404537
H          -0.02093334190641    1.02775201204153   -1.10002118578666
H          -0.18686145030079    1.73287183055328    0.43817114462237
N          -2.73409606949120   -1.19398907017303   -0.73354211234341
H          -3.63276806754865   -1.62856327813566   -0.90719729273529
H          -2.01561018691207   -1.80912146706446   -1.11301562521803
H          -2.69019125300548   -0.34497058960085   -1.28473161228611
