    26
        -50.44849466  Gyration_radius:  2.48594260232 Dipole_moment: 4.266
 S           1.13656321855627    1.30866312436187    0.93386111676491
O          -0.03971609604421    0.77074506583594    1.64268230653015
O           2.34685858369061    1.14792270834108    1.68637994497767
O           1.17339849995798    0.82391592710282   -0.43131657995283
O           0.88149810260370    2.87524701400913    0.82438787190016
H           1.37340659599680    3.21503320261776    1.56479122581108
O          -1.04496031165926   -1.78097305088859   -1.25555764005279
H          -1.39964619057515   -2.66859606685157   -1.19127808263073
O          -2.52755094035912    1.78264329652709   -1.30112926911304
H          -3.30518100531840    1.70810232247019   -1.85659592787555
O          -1.97018075117736   -0.04531773190298    0.38087848542404
H          -2.27134133020306    0.73319823221211   -0.21400872548337
H          -1.60719892639064   -0.76390150504355   -0.25331775168601
H          -1.11728189790876    0.32806334013083    0.95389942386559
O          -0.47459419413922    0.76053874335903   -2.52924219911406
H           0.22608719105593    0.91912404785544   -1.86648471182785
H          -0.63285950362040   -0.19091123159071   -2.49830533671663
H          -1.74092825740884    1.54855452032074   -1.86981848694233
O           1.41667908400460   -1.83133614000985   -0.60552859222755
H           1.51200242815243   -1.97205680560605    0.36894359555029
H          -0.05282120053080   -1.85385523186439   -1.02366588329559
H           1.56378138667850   -0.87293321857515   -0.70271405703777
N           1.61280276234687   -1.61192981622731    2.05933676330582
H           2.03415713667226   -0.68641553874896    1.99271882759436
H           2.19028861431671   -2.16801850325281    2.67894340651590
H           0.71673699130277   -1.47550669458350    2.51214028571416
