    26
        -50.44849477  Gyration_radius:  2.4858291246 Dipole_moment: 4.261
 S          -0.07581967738683   -1.75377298139446    0.89157781078206
O           0.23359506209732   -0.56607992086660    1.70956924050467
O          -1.17985477406507   -2.50426263171291    1.41584609201432
O          -0.16451530321640   -1.39669532928395   -0.51010304995545
O           1.20271758019595   -2.69281616708801    1.01321073945032
H           0.94693467152115   -3.29958533890855    1.70016064276101
O           3.24739811869496    0.52462099852712   -0.65767756394412
H           3.84870102177463    1.13548946121575   -1.08671756832881
O          -0.24936845318278    2.03604112446143   -1.27776080274719
H          -0.62613359413851    2.91677773784294   -1.26535321328268
O           1.26702510825799    1.39888502834233    0.68225802069962
H           0.81593791634990    0.52105332080685    1.15292051194343
H           2.13083342910314    1.06790667842199    0.24091206621174
H           0.64449293663206    1.67554216717045   -0.08330324419427
O          -2.12936776802810    0.33494690719334   -1.03954590122964
H          -1.55223537708705   -0.45024331975381   -1.04270278390082
H          -2.48574477955376    0.34386202438728   -0.11685686207198
H          -1.03742100132614    1.38891945956109   -1.21769241022443
O           1.35518282486916   -0.14596619371841   -2.31227526710677
H           0.80422847734798    0.64422631209981   -2.37011672151057
H           2.65015283499447    0.15769544142707   -1.36878114024414
H           0.84480762197750   -0.76621454680362   -1.75538313407255
N          -2.64228697848402   -0.02761678779830    1.56694689019615
H          -2.28534197766106   -0.98195489984875    1.54575153929558
H          -3.55071695205299   -0.05004399365388    2.01515834372957
H          -2.01320093763675    0.48928544937638    2.16995779522730
