    26
        -50.44849475  Gyration_radius:  2.48584749419 Dipole_moment: 4.258
 S          -1.11022675103053    1.54724259360007   -0.49839932998848
O          -0.78720699311409    2.76634209891129   -1.18133409127540
O          -1.09496042620338    0.37921398080072   -1.39903742341470
O          -0.34482634473740    1.27420122008789    0.70142100906325
O          -2.62061207077443    1.68863579952447   -0.01878658091596
H          -2.96416291458362    2.34671350303641   -0.61421805329265
O           1.64762205545953   -1.62518122929185    0.69573735346549
H           2.36255210372443   -2.18354674133748    0.38766664739742
O          -2.08662101253004   -2.13551431255639    1.52971555507305
H          -2.11320166195181   -2.97362274783039    1.99410711818008
O          -0.59631944349207   -1.84613417912356   -0.51426704722654
H          -0.83211862569147   -0.85693605934001   -0.91711839706444
H           0.31721205425625   -1.76792467835888   -0.05677106168744
H          -1.27587893584383   -2.01384728939973    0.23433446421739
O          -0.28135438392076   -0.59899216824605    2.60145581348075
H          -1.52013812953136   -1.51967929749914    2.07447546106996
H           0.55516121689751   -0.99055807095549    2.32181276642156
H          -0.37998518501674    0.20099949944490    2.04870004726673
O           2.24253871323394    0.80597351090665    0.22519242776820
H           1.94326633691678   -0.66309826981914    0.52194872221926
H           2.18527613370988    0.99224099119174   -0.74456978227553
H           1.41006226396424    1.17862619937614    0.56821154313379
N           1.50258973710626    1.40801226023864   -2.28052567519852
H           0.77097391587658    2.03898331097626   -1.95619141881463
H           1.02382205248563    0.64568288552858   -2.74549082270773
H           2.04653628477802    1.90216719013130   -2.97806922490185
