    26
        -50.45379106  Gyration_radius:  2.52427575764 Dipole_moment: 3.725
 S           1.18043618156191    0.72796264218383    0.26613916368778
O           0.31208094632009    1.65294745032305    0.97673328081288
O           0.98452184713599   -0.65050711485068    0.79768026672565
O           0.98875020250919    0.76094745073868   -1.16479108259244
O           2.65519010199708    1.07891154075709    0.56870951151135
H           2.67160055700465    1.08849022581330    1.57125520348931
O          -2.50237138960385    0.07908133587522   -1.05900614186114
H          -3.43144131868429    0.23265788135455   -0.87982012576647
O          -0.33453493949189   -3.17506992041488   -1.21180515583699
H           0.58328976793575   -3.33360223263476   -0.98158101654753
O          -0.38457922340223   -0.99239592574682   -2.65234504296871
H          -1.26589681055709   -0.64229658430551   -2.47389895258017
H           0.23140790105134   -0.37509551369711   -2.20889632153586
H          -0.32518082732866   -2.45798110042290   -1.90356834285976
O          -1.26183771272496    2.35532690686478   -1.00118662655661
H          -0.75983348141934    2.24617606105848   -0.16333786240091
H          -0.58497666947015    2.26009136061930   -1.68001261746062
H          -2.06092989467159    0.98142821286556   -1.04202479406073
O          -1.25430979216336   -1.56525029529145    0.52790634252920
H          -1.77033692506556   -0.91295297522848   -0.04132306241534
H          -0.99273518661106   -2.33369264040294   -0.10419903388382
H          -0.22295653459979   -1.09817617735115    0.72037522259695
N           2.06962315760192    1.03333862660970    3.09701361243600
H           1.18322706718689    1.40311442071330    2.76298759527632
H           2.37012658692762    1.56450914382037    3.90393133375890
H           1.92166639856122    0.07203723071126    3.37506465649216
