    26
        -50.45301687  Gyration_radius:  2.45763810587 Dipole_moment: 2.640
 S          -0.42211926084233   -0.28711556813972   -1.38874192622205
O          -1.03784286377306   -1.59440274727810   -1.27518930714636
O          -0.65129131728979    0.50953343823704   -0.18145505688172
O           1.00981876109953   -0.35802005692925   -1.68190407446680
O          -1.06657429142395    0.48245885908269   -2.57568773645905
H          -2.03965975944949    0.43655203328432   -2.37016742209157
O           0.79067826263606    2.57808117199307    0.53705691320553
H           0.09522591704778    2.02759484723469    0.11041390828203
O           2.43421238084003   -0.90469305951314    1.53094183351196
H           3.17273569801498   -1.51586992131300    1.54722173566916
O           0.19724254759608    0.71804363536320    2.44245211666456
H          -0.24539114535403    0.49438920404444    1.60662055104027
H           0.98148124436909    0.16226357935430    2.49171839332067
H           0.68250661917095    2.36794656814639    1.48218705968178
O           0.25717310517253   -2.22298019049608    0.91281660785552
H           1.64282253103011   -1.43523866725529    1.24213272283834
H          -0.42343981839287   -2.05844659097698    1.57012928415807
H          -0.17532377125391   -2.08577480150370    0.03972053970013
O           2.53003886432468    0.95114750390995   -0.26006993429501
H           1.91978692432452    0.42476162696085   -0.96889262074042
H           1.90639804257536    1.73291149059015    0.07731324140352
H           2.59798072246055    0.27926296675843    0.49507754547528
N          -3.40155751269986   -0.04152252622542   -1.52737521729287
H          -3.49730989359688    0.49999126856438   -0.67816312859706
H          -2.93269593834761   -0.91225385889431   -1.29239107073791
H          -4.32489603824982   -0.24862022494413   -1.88576495788919
