    26
        -50.45301692  Gyration_radius:  2.45768376744 Dipole_moment: 2.641
 S           0.04550066488972   -1.04881374593544   -1.04244645314967
O          -0.74909187077241   -0.00376566662815   -0.39347813216184
O           0.94279392329412   -0.48333355591175   -2.03042749360211
O           0.74259091491420   -1.85053062446271   -0.03609392187707
O          -0.95083796429727   -2.01268229317280   -1.74583443289980
H          -1.34000701994184   -1.44581199303073   -2.46589309724877
O           1.92031193195863    0.61495001818029    2.24105059269219
H           2.79679110175069    0.45334626563607    2.59440183855149
O          -1.94581669713348   -0.26245312846160    1.92492883270852
H          -1.77055150950984   -0.28810579305988    0.95677839997551
O           2.11956892296342    1.11564669963109   -0.32197554668922
H           1.78931702099260    0.46496007185790   -0.98205716738478
H           1.68022873657090    1.94408324813911   -0.52955044069642
H           2.03749122714798    0.74773695576397    1.26136106297140
O          -0.51374062839311    2.01643419214708    1.48027535318420
H          -0.52492767561248    1.46611992263014    0.67929471577693
H          -1.78979579473036    0.67301634306019    2.14773373051807
H           0.33414920034172    1.85762219764309    1.90713578707196
O           0.27219095376001   -1.36913089313965    2.32904243244606
H           0.91648616249196   -0.59323437434143    2.42508517076623
H          -0.69981566734947   -0.95994629536264    2.28728031917623
H           0.45938212027140   -1.68750114555895    1.32148153947680
N          -1.50486671993985   -0.07755950743927   -3.41138286446490
H          -0.51273940453132    0.10757062163769   -3.29038774074937
H          -2.01855547505448    0.63661941161940   -2.91179484073833
H          -1.73605647408718   -0.01523692143854   -4.39452764365393
