    26
        -50.45301674  Gyration_radius:  2.45748896704 Dipole_moment: 2.640
 S          -1.46482878912861   -0.20629617019833   -0.05953271816739
O          -1.79287340444022   -0.57951988163531    1.30213528763671
O          -0.36397752100059    0.75908597436524   -0.09017417170121
O          -1.14800141572974   -1.35952667741541   -0.90282646977510
O          -2.69599682576606    0.48054757430880   -0.71432838109202
H          -2.91720297717421    1.20520866024434   -0.06847227620211
O           2.26087489172991   -1.99071440355590   -0.10265585209213
H           2.49788065138078   -2.91789128298723   -0.04479098456085
O           1.15766804153159    1.21984660325014   -2.17497123283039
H           0.41218641391570    1.26757724527370   -1.53406790170309
O           0.93812174614408   -1.28201335844810   -2.20232118117447
H          -0.02363261417406   -1.34631230528987   -1.73046039806027
H           1.09034517843655   -0.24473560242528   -2.32279244083447
H           1.55530613910371   -1.58792550750318   -1.45939989482321
O           0.62767931752738   -1.40932972908557    1.86035863867141
H           0.96105058945480   -0.65335235397469    2.34986283036426
H          -0.31882875194194   -1.21287377501629    1.67668862216859
H           1.60254299407574   -1.82770009245111    0.62623796337888
O           2.37772794939046    0.89621182983660    0.24403834068404
H           2.67081893399016   -0.02052907476414    0.24721000099763
H           1.93603962500052    1.38547643104637   -1.61310441074716
H           1.41184863909939    0.87586372588367    0.34994315786850
N          -2.78254510979577    2.08162319705704    1.34829331624170
H          -1.98281144017771    2.69962863134115    1.30377708009036
H          -2.49632636270042    1.23307882501944    1.82916039706990
H          -3.51306589874387    2.53457152714056    1.88219266861292
