    26
        -50.45301681  Gyration_radius:  2.45764029836 Dipole_moment: 2.641
 S          -1.19359114862263    0.43469475110812   -0.75938722881253
O          -0.11483404310768   -0.54797919204973   -0.63543235393441
O          -2.28215096146493    0.13106918416880    0.14829201389593
O          -0.66607848885130    1.78786165629195   -0.57974769337224
O          -1.71162023837174    0.36561407395331   -2.22340640642015
H          -2.12586550019675   -0.53844743981299   -2.27127053721910
O           2.36107076450756   -0.14914490309983   -1.40032027197582
H           1.40685104361601   -0.39012040480055   -1.41381679113678
O           1.55265712644513    1.39837339473817    2.17320973636119
H           1.55338575627485    2.12542163913435    2.79818036280859
O           1.95287261118242   -1.25925812687278    1.05802597632532
H           2.03124381243331   -0.52294499814559    1.67288435116714
H           1.10480205323744   -1.14335847100343    0.59772356858810
H           2.70975328617063   -0.69026076635435   -0.66908435608635
O          -0.76721120867618    0.18746928627761    2.28429987035182
H           0.64017450775724    1.00213168916730    2.21106194066866
H          -1.40088066642547    0.25801723458847    1.53490776295868
H          -0.63913061514881   -0.75310414627913    2.43031604539660
O           1.76609196489586    2.03780867486941   -0.31811679501230
H           2.13566878688224    1.18657902859301   -0.82068336311941
H           0.71048019700193    2.00986898121048   -0.50997585486053
H           1.80259968126715    1.83540763729837    0.67389658191865
N          -2.65351063466956   -2.00982299979789   -1.67977235923223
H          -2.83502426747617   -1.56795563992248   -0.78256245877116
H          -1.87179669406669   -2.64153682614935   -1.56386118759757
H          -3.46595712463191   -2.54638333712218   -1.95536056288037
