    26
        -50.45301681  Gyration_radius:  2.4575027459 Dipole_moment: 2.639
 S           0.52505374969300    1.26843025546656   -0.55352890450115
O          -0.17486173957186    1.38281014455127   -1.81763248807439
O          -0.31987244308101    0.63407536642938    0.46052366898491
O           1.79554377548966    0.55194151120475   -0.67158590824595
O           0.87914711953973    2.68953328684224   -0.03237160738182
H           0.00010747452405    3.15681817016442   -0.04269984082237
O           0.57485722446306   -0.52138077176245    2.63732232420684
H           0.24825589876882    0.16351682645071    2.01042815341245
O           0.77638952034046   -2.85493668308002   -0.57680873429168
H           1.25550336541935   -3.43720925214850   -1.16892414636755
O          -0.65218482823270   -1.18577758686511   -2.00221628905168
H           0.29147472513351   -2.20804902719683   -1.15782937593959
H          -1.56855533349032   -1.21232136766164   -1.71608259528593
H          -0.41112315979855   -0.23254011972638   -2.03964578295229
O           2.21132060221183   -1.29589069666251    0.89663981212951
H           2.13202799349880   -0.45110267949903    0.23955598296156
H           1.61590866847523   -1.02678892718497    1.72544992099327
H           1.70243028543253   -2.00647173851559    0.38435769644494
O          -1.31304796783102   -1.84503118929440    1.17871932022994
H          -0.81292315398882   -2.47291912463779    0.64769419843098
H          -0.13306890247248   -1.19021074885096    2.61411984162032
H          -1.14705279183133   -0.96773185161431    0.79489799655710
N          -1.63243446719280    3.33261984394418   -0.35547682094189
H          -2.17857349128619    2.84108224651192    0.33998288967994
H          -1.52888704608881    2.72203085732371   -1.16149506560682
H          -2.13543507813122    4.16550324580684   -0.63339424618868
