    26
        -50.45301672  Gyration_radius:  2.45742839796 Dipole_moment: 2.642
 S          -1.21787039450092   -0.55593198348360    0.63234534402907
O          -2.28408197920244    0.17348048472443   -0.02502189705571
O          -0.09924037995584   -0.79221979836697   -0.28289729834647
O          -0.74348251656135    0.10620147352554    1.84809368390530
O          -1.74750178257825   -1.94752936048477    1.07879251405121
H          -2.12466969951754   -2.32312273036229    0.23740673287576
O           1.51544102782401    2.54130702596709    0.57421169010101
H           1.49297581199844    3.38805955848454    1.02327663564683
O           2.35107328087092   -1.34557642829587    0.46828073064203
H           1.40722847007668   -1.45112242981899    0.20985144045533
O           2.01164572332051    0.53740488096547   -1.47639568096836
H           2.06620071293392    1.37862132867026   -1.01190059626639
H           2.72840516520002   -0.85971178877743   -0.28712382332770
H           1.15522893151034    0.14606434688262   -1.23563652726577
O           1.67906103958835    0.45523347881885    2.08491922208729
H           2.07787083721061   -0.32062044509303    1.49100423363769
H           1.73301824591777    1.30562465006189    1.53680008262272
H           0.62377576568943    0.26025038829660    2.08565684473749
O          -0.75224097574274    2.19153230937147   -0.68846411279169
H          -0.58446017717088    1.98524208370336   -1.61129302491205
H          -1.39538004242068    1.51562588467061   -0.37589055651111
H           0.62012097437148    2.42742026919315    0.15398568062437
N          -2.58477592690978   -2.30958608185320   -1.36927491670677
H          -2.77632415610371   -1.31441646905762   -1.29138548781724
H          -3.37619457577461   -2.76651416891755   -1.80371023270213
H          -1.77582337006055   -2.42571646880505   -1.96563068074530
