    26
        -50.45567463  Gyration_radius:  2.46073997837 Dipole_moment: 5.089
 S           0.84637678784627   -0.19689845135177   -1.74255596620513
O           0.37113716025875   -0.88406485287424   -0.56684957083642
O           0.66844532076037    1.31996402717038   -1.53193350624901
O           2.20230030371567   -0.48685471617955   -2.09596343690646
O          -0.08192557220376   -0.50931099567621   -2.91968400573658
H          -1.02935453039108   -0.24444969437093   -2.56576011393380
O           1.61875615703640    0.37171275360914    2.18371085018682
H           2.24094882852861    0.88875120245767    2.69808126201657
O          -2.36096778204454    0.11804846131778    1.06877803624179
H          -3.00730581282380    0.25544787644958    1.76285020948370
O           3.13023925770448   -0.87854408686317    0.38570876593750
H           2.15595259021872   -0.08513572239537    1.48944246759421
H           2.97967719194137   -1.82244961839104    0.47369015783212
H           2.91217352743135   -0.67125942027484   -0.54433200006370
O          -0.45993289602922   -1.50546042322539    1.88456725736556
H          -0.13711394770460   -1.54227496189083    0.96768802091896
H           0.19028117508635   -0.94675289372032    2.33237642354782
H          -1.73320625145499   -0.57834440993609    1.40388284731609
O          -0.21805545606156    1.77682132469040    0.78014650358591
H           0.30302334936412    1.54277883910638   -0.59097363215313
H          -1.04145646082360    1.25348010997989    0.85515613196669
H           0.44368115150413    1.30768295168150    1.33261349983164
N          -2.28780050789551    0.27552245354250   -1.88912345891943
H          -2.27778133984981    0.04560569442361   -0.89729723440447
H          -3.13966741045246   -0.08784177706803   -2.29638539976584
H          -2.28842482366320    1.28382631979463   -1.97783410865503
