    26
        -50.45567462  Gyration_radius:  2.46074756514 Dipole_moment: 5.088
 S          -0.39321953566600   -1.61123364287458   -1.02030918624152
O          -0.38218732375885   -1.00556139347983    0.28866133762175
O           0.19007936567412   -0.60572004646025   -2.03303279653679
O           0.30643305151155   -2.85634873405384   -1.10759764758223
O          -1.84239740190417   -1.78907059499078   -1.48207852534030
H          -2.24858738697971   -0.82923972805499   -1.39981845102346
O           2.52943856790661    0.29318489350553    1.02181437319312
H           3.47428166623143    0.41987784863754    0.92055254795085
O          -1.12598518980488    2.21705711114967    0.73880261681062
H          -1.17521286285115    3.09542757149278    1.11877486595180
O           2.18198734879482   -2.32885791370016    0.73012621050648
H           2.37124072834332   -0.67501548550252    0.89212598470089
H           1.74379516491783   -2.66116809114543    1.51684853002625
H           1.59931409420528   -2.58247677356563   -0.01261479791047
O           0.08143935418864    0.56319400287456    2.38874784347779
H          -0.75531309535967    1.62493509209965    1.44823607419444
H          -0.18982899091536   -0.16873824405717    1.80829489264471
H           1.02746600404148    0.65637257854185    2.21028464870262
O           0.96504108862820    1.47366642977989   -0.84303835636435
H           0.51678609889111    0.26230334776627   -1.57662765725285
H           0.18738285239491    1.79788053485899   -0.34539164590450
H           1.56874329495877    1.09267663960287   -0.16955071826247
N          -2.60966657266263    0.64342886703326   -1.28638321813676
H          -2.25833055355747    1.10914904714640   -2.11359561712089
H          -2.15676956752872    1.05786286938013   -0.47409675736350
H          -3.60593019969939    0.80641380401442   -1.21913454073593
