    26
        -50.45567460  Gyration_radius:  2.46073998561 Dipole_moment: 5.092
 S           1.38502905808102   -1.05045899805337   -0.87704684849539
O           1.77081883306069   -1.01105315998515    0.61505963128536
O           0.18937663204847   -0.26589816770592   -1.06464859516737
O           2.49684461731501   -0.64519045120115   -1.68154371785947
O           1.06473768405426   -2.52669848176463   -1.12828557546247
H           0.26437375176829   -2.72014622801401   -0.48390299397892
O          -2.30211055046842   -0.30409674779926    1.15643906090929
H          -3.07326768121000   -0.04684152864718    1.66390724799770
O           0.42794837864530    2.69228809701334    0.31079892815373
H           0.89505505448805    3.43656585377112    0.69411397506583
O           1.92939369845175    1.97085716555583   -1.76419000624099
H           2.26901171978409    1.05520028023219   -1.72194608895185
H           1.38250281373434    1.99883973766298   -2.55252132811170
H           0.98179661833784    2.38908189786868   -0.45117210383264
O           0.20029208671803    0.49877985826264    1.87759402411018
H           0.27612500956422    1.32785791851829    1.35789922056255
H          -0.69804409171140    0.15597774241462    1.69591038692465
H           1.14311630382084   -0.40008304393724    1.16410437149821
O          -1.84435821749199    1.42630040854537   -0.77012614074562
H          -2.24698078741712    0.32872338964805    0.38976550014055
H          -1.30780579969699    2.12676782082738   -0.37400507865536
H          -1.18470391591644    0.80834259468597   -1.12959090412432
N          -0.82447563160741   -2.80561411551083    0.57363492640740
H          -0.37087299824258   -2.91579374774253    1.47177179421720
H          -1.45898366688827   -3.58074083845334    0.43178135219726
H          -1.36481889922543   -1.94296727619491    0.59619896214770
