    26
        -50.45567462  Gyration_radius:  2.46072638239 Dipole_moment: 5.089
 S           1.84357341653884   -0.53043395855620    0.33283641396730
O           1.02249442877020   -1.83517068751334    0.34929144149736
O           0.94329656445619    0.57788578936325    0.12921151694982
O           2.64330563617603   -0.43979469638584    1.51596188616634
O           2.74140438965221   -0.68426125110134   -0.89808461141466
H           2.06422918911401   -0.76295001756925   -1.69079695249763
O          -1.61344059829667    0.47996619152873    2.16636643746158
H          -2.09228340914531    0.19145280919202    2.94517289746549
O          -1.64209917636222    0.37614605344554   -1.97340122803922
H          -2.48546333892764    0.54109699468646   -2.39754404349497
O          -1.43350929459089   -1.31666809708017    0.15217599979214
H          -1.55360445887091   -0.68469842103560    0.89343515837639
H          -1.52608346130675   -0.78499019287463   -0.66406787490166
H           0.00719597748663   -1.65788712084004    0.26788259804745
O           0.87124031675689    0.87723549695598    3.03199239491240
H           1.54809745688226    0.32491768966240    2.59342328784103
H           1.11735449925835    1.78260402493226    2.82937028247351
H          -0.67702329716713    0.61105107772572    2.45819846349722
O          -1.20302398619399    2.13946941434578   -0.07262407505717
H          -1.49293145437853    1.13165664951744   -1.34228299616445
H          -1.63213806813502    1.78688788286304    0.71920162739665
H          -0.29282986544570    1.80220725632968   -0.00906887813885
N           0.91825569816419   -0.94050320673787   -2.67400150931304
H           0.13815782545761   -0.33671264624789   -2.42187895288551
H           0.60582579781548   -1.90110484238843   -2.60872783663387
H           1.17999919231135   -0.74740218220793   -3.63204146730447
