    26
        -50.45567462  Gyration_radius:  2.46074685283 Dipole_moment: 5.088
 S          -0.81900660166440    0.26373884208875   -1.74672929627931
O           0.42153882932244    0.16804260559757   -1.01716226866786
O          -1.98746189225522    0.17596818243798   -0.74479998384632
O          -0.94959213480839    1.44067661129112   -2.54998332153031
O          -0.99239473610496   -0.98641105010469   -2.61390054944979
H          -0.90182730086424   -1.77500223079658   -1.93347856451452
O           0.51567071429806    2.21862776843705    1.52933031236963
H           0.23302727715626    2.97504102898596    2.04604811660579
O           0.78226971839303   -1.91330307989849    1.56767590556498
H           1.10446548690120   -2.31155646450068    2.37757463031075
O           2.28916742744546    0.12889893796465    0.87929767249132
H           1.44958627295190   -1.22037364647735    1.31101461777880
H           1.81942264357459    0.15196072289940    0.02779618462830
H           1.93367876503078    0.89176181405881    1.35589831202546
O          -1.10389871346699    0.05328954031286    1.60987409932511
H          -1.65877782047137    0.12211325842198    0.23380461248825
H          -0.49449935532284   -0.71219918494480    1.62330252521468
H          -0.52908215021865    0.84828401409853    1.63800160921172
O           0.47081960808281    3.08650563836363   -0.98574188226135
H          -0.13282444140978    2.59372009487360   -1.57588631754832
H           0.48318388083065    2.50980456191408    0.58411063572675
H           1.34541706936246    2.96076538236366   -1.36070697710879
N          -0.82373926756219   -2.75676540263302   -0.77504855897608
H          -0.13873719402630   -2.44310893606427   -0.09013115292063
H          -0.58527511414507   -3.69677994663058   -1.06342759394595
H          -1.73113098097754   -2.77369908203793   -0.32673273663324
