    26
        -50.45567463  Gyration_radius:  2.46075471846 Dipole_moment: 5.089
 S          -0.78490933368829   -0.72406581261155    1.62808248885511
O           0.43614198164748   -0.50362913223458    0.89271582894145
O          -1.97112166180840   -0.24453398528037    0.76803745064613
O          -0.99560613336134   -2.07737441362657    2.04252820984315
O          -0.81861747733424    0.20873691741018    2.84203911874485
H          -0.67909795511719    1.15883764822399    2.42878733424304
O           0.90139878266812    2.23745910476274   -0.95594029438993
H           1.23285357891904    2.83949119814699   -1.62382903095864
O           0.26781019191921   -1.67480499721044   -2.15641230860593
H          -0.09754955837483   -2.21241622907887   -2.86106863385054
O           0.22320877344216   -3.26666115151456   -0.02461742387069
H          -0.31543194627135   -2.93421607606088    0.72029379099476
H           0.23879607284145   -2.23866240083116   -1.34370799049296
H           1.11663040185660   -3.32873867719587    0.32073931866076
O          -1.15314888012372    0.52682038726469   -1.48483194753624
H          -0.47858122095721    1.21122591230998   -1.30035458221973
H          -0.65279413075985   -0.26237556974704   -1.78498105655924
H          -1.66918711826807    0.08175828160466   -0.16539776786697
O           2.24009895588746   -0.02549143902642   -1.00546954837925
H           1.80361734736174   -0.57625008252224   -1.66998919307305
H           1.51171470162468    1.45083825451145   -0.95960552304725
H           1.79663975204047   -0.27316616408056   -0.17586559000815
N          -0.54986182711823    2.43979809664460    1.61969222014844
H          -1.46561131263543    2.66081399074296    1.24937850118444
H           0.08330650451085    2.30092570890718    0.83454261652769
H          -0.22069850889102    3.22568065042690    2.16523400202366
