    26
        -50.45567430  Gyration_radius:  2.46102480818 Dipole_moment: 5.088
 S          -1.00238261937657    0.96092810831366   -1.36303431048611
O          -0.77439851882966    0.79467590110465    0.05142910583689
O          -0.14698497975804   -0.07112417147829   -2.12450000331308
O          -2.37210966295748    0.85382976700510   -1.76293105127233
O          -0.42741781250631    2.30728555865900   -1.81227452972877
H           0.56740720666108    2.27034599684433   -1.49337470766991
O           2.26040501110106    0.11507551212025    1.26468177295246
H           2.96395359073664   -0.18447980833037    1.84229393669542
O          -1.07894891990003   -2.31867065438945    0.99900159071667
H          -1.35801669368101   -3.23121302673039    0.90712088474361
O           1.04856848081325   -1.57485935849401   -0.49711956704450
H           0.35911698949516   -0.70612839188583   -1.48450699564054
H           1.56214237524178   -0.97581080614775    0.08143600637858
H           0.30166898123944   -1.89618976921466    0.05259357692691
O          -0.07478392300477   -0.12356371641104    2.44984556982012
H          -0.46530800043553    0.38736096073603    1.71997592168508
H          -0.36827361299449   -1.02868664181567    2.27628108816586
H           1.42488385210675    0.09395631087082    1.80584512162799
O          -3.14694087661061   -0.90484736114495    0.10227845824318
H          -1.82486512267661   -1.77116062736431    0.64795658230967
H          -3.42027866320028   -0.30188472831656    0.79729514007434
H          -2.94556461925477   -0.33417986270703   -0.66543101809005
N           1.98389593379831    1.97660826759642   -1.02418986326202
H           2.42757689188575    1.40500478450578   -1.73193060164664
H           1.96754687088267    1.44704272841220   -0.15471678194656
H           2.53910783123286    2.81068503824724   -0.88402533609134
