    26
        -50.45567443  Gyration_radius:  2.46081738048 Dipole_moment: 5.094
 S          -0.04628429640759   -1.54970763763572   -1.17668670790241
O          -0.48574444323658   -0.18989544394099   -0.98136376006841
O           0.74478418306860   -1.99560511507391    0.06910188399616
O          -1.09635719142022   -2.48236435262650   -1.45069947149557
O           0.99579575326625   -1.58724033985857   -2.29822185745762
H           1.71548215764287   -0.89438902032461   -1.99067902956877
O          -1.96168097004544    0.22726977590689    1.90687551397399
H          -2.40283937946388   -0.06453294621044    2.70641376115756
O           1.45964871503525    2.08545281501266    0.49520296278709
H           1.74932035754053    2.86768024041994    0.96685826370142
O           0.71084669129549   -0.17999983753663    1.81289177742140
H          -0.25327778398727   -0.02040166025046    1.90384334107306
H           0.75189998276971   -1.27084785819517    0.80646117547614
H           1.06840948741235    0.61565795033112    1.36969255991299
O          -3.01272737938705   -1.28286622088323   -0.01507436596995
H          -2.31956530569358   -0.33910167733274    1.17854076038688
H          -3.38193949115683   -0.70080913423837   -0.68304106560717
H          -2.36664558947878   -1.84032537972461   -0.49188026605000
O          -1.13069992028109    2.17704061906745    0.05194371696735
H           0.50017290909196    2.23108846665532    0.27277184892796
H          -1.02848985662658    1.40724244165201   -0.53387678799089
H          -1.54773923624155    1.80751213047213    0.84252438476704
N           2.67052959666297    0.08218761815482   -1.32162165266690
H           3.31276593170847    0.51942491820191   -1.96967287378819
H           3.20349440506957   -0.43405882802633   -0.63314947859218
H           2.15084068286267    0.81158848597319   -0.83715462338591
