    26
        -50.45567400  Gyration_radius:  2.46124553086 Dipole_moment: 5.087
 S           0.41562360031103   -1.61994516048336   -0.99375186984401
O           0.22227508261026   -2.06797122118271    0.46855223201765
O           0.26505294075886   -0.18711208409411   -1.06035576397819
O           1.66094837381273   -2.11278962823658   -1.49755800804446
O          -0.74952341754734   -2.28519162354904   -1.73182497442726
H          -1.59749491747265   -1.87507194557436   -1.27836293595916
O          -2.04149103002871    1.41369962905745    0.74577509613372
H          -2.51023094548962    2.10285494753814    1.21878624881959
O           2.07630693102637    1.35850892660839    1.17522453715208
H           2.78122823155941    1.43359202817304    1.82058828492104
O          -0.09195597937322   -0.05925145832868    1.95367633326298
H          -0.85423178418729    0.42535742097468    1.57761395815039
H           0.08958144132290   -1.26586118642044    1.10711568999143
H           0.69908245537412    0.47477797084291    1.72469689844718
O           0.05842933438330    2.40435556797121   -0.48846934198503
H           0.77453718711673    2.39795189199262    0.16161691652631
H           0.15718680059074    1.55143673404957   -0.94557524311524
H          -1.32577590523520    1.86867350020146    0.22400081536845
O           3.16926385654777   -0.00173620645322   -0.83350962718491
H           2.45168089129986    0.83341078646708    0.42505886101922
H           2.72664162131327   -0.84919520620149   -1.03713543490328
H           3.08425487815432    0.52339462296156   -1.63245905763264
N          -2.68469209333081   -1.22612244983541   -0.43621374209190
H          -2.42530880612333   -0.27150501664511   -0.19502946471916
H          -2.76492591375511   -1.75647399146374    0.42214121874575
H          -3.58646282363713   -1.20978684836993   -0.89460161667247
