    26
        -50.44772981  Gyration_radius:  2.51299414306 Dipole_moment: 2.774
 S          -1.66729857456061   -1.20693463376366   -0.47828642027469
O          -1.24750709305861   -1.35706808330444   -1.85128766263910
O          -1.06059833796588   -2.22934801793986    0.39195969061977
O          -1.48766383269642    0.12633745156816    0.05035804218206
O          -3.21950606302590   -1.50535310243256   -0.43682306814476
H          -3.24866783641544   -2.35162583521241   -0.87008383424210
O           2.14760343969233    0.04880677654913   -0.24798788264675
H           3.04757698320825   -0.08164521879047   -0.55074997126801
O           0.85657894010735   -0.38783574768591    3.27749001690365
H           1.60821451381796   -0.11795306447625    3.80732304770086
O           0.75183622258812    0.31373513898030   -2.33558866909683
H           1.58251232475524    0.15404972158517   -1.10485804982036
H           0.04524204607089   -0.36392178605455   -2.28144143351757
H           0.27441251691343    1.16983218150014   -2.22143622663305
O           1.21187690890200   -1.83187468756238    1.20734785492610
H           1.07160694080719   -1.36640986939970    2.11086119462631
H           0.20802321155306   -2.04899541085559    0.84046024489793
H           1.60308789246204   -1.11660105987670    0.58574551750346
O           0.38310665974301    1.42634388566228    1.46592095363491
H           0.59473562509283    0.39944031668214    2.72234257876713
H           1.10856312331549    1.25594224946721    0.84920301070953
H          -0.40449976391555    1.04994864566772    1.02818815213414
N          -0.82946654478474    2.39435413690626   -1.62865453138687
H          -1.29043389255988    1.70853343521608   -1.03213222469827
H          -1.52367738199848    2.76680934201509   -2.26381923651582
H          -0.51565803876453    3.15143324349620   -1.03405107281684
