    26
        -50.46147049  Gyration_radius:  2.59199536587 Dipole_moment: 4.230
 S          -0.50386106319080   -0.54434473368186   -0.07907494126794
O          -1.19711681335828    0.81895271734379    0.28849990880153
O          -1.03575815490684   -0.85500860546773   -1.41721450424130
O           0.92297408183618   -0.26590739995964   -0.16356376639881
O          -0.84939307005414   -1.52700795333031    0.91958610282313
O           1.46234610030973   -1.31389151392274    2.25953586743181
H           1.73937166949427   -0.83312521861815    1.46612759934315
H           0.61974485057327   -1.70499591972983    1.97415226350888
O           0.89536948347555   -1.30984526015660   -3.24961015839197
H           1.40372654944777   -2.08672822551663   -3.01221982617133
H           0.15103943944807   -1.27188224789686   -2.61622400947445
O           0.45492057000263    0.49820223869009    3.93366845865852
H           0.93960009143991   -0.13991552948394    3.35624372234092
H           0.56386271008073    0.18181601751745    4.83175139361852
O           1.65607239741790    1.08294312712994   -2.29078809753272
H           1.64500864140778    0.29996647009112   -2.87858393709664
H           0.23344218307435    1.52184214505225   -2.39373803493121
H           1.57948511638744    0.67880707436265   -1.39413439034715
O          -1.88306301565742    0.24164222685241    2.66260496158087
H          -1.76211996249303   -0.67552567808159    2.37300894271158
H          -1.09341786536609    0.45276219256130    3.21397462971764
H          -1.51664598002844    0.72462428152953    1.24489485652195
N          -0.86476338480860    1.54626191715437   -2.30992290710516
H          -1.14349966101864    2.11698817506871   -1.51330064126911
H          -1.09161747155117    0.52881529111025   -2.03879357421951
H          -1.32570745196093    1.83455443138058   -3.16687990861227
