    26
        -50.46843471  Gyration_radius:  2.53769044219 Dipole_moment: 4.845
 S           0.38396666060655   -0.62597071586458   -0.55878357139742
O           0.51057831658824   -0.62037612960860   -2.08473015418389
O          -0.76055676252087   -1.44851106970241   -0.16952828978308
O           1.62084808110641   -1.13450784985158   -0.00328582679555
O           0.16579687106102    0.77370728502273   -0.12864934828576
O          -3.10867557293460   -0.57665823827439   -0.97361689132324
H          -3.62888074044807   -1.35804302208415   -1.16858682029817
H          -2.26809198482435   -0.90230469108475   -0.58157600339456
O           3.16694564848936    0.12416530345253    1.70501876777046
H           3.77842963071963    0.67929147871946    1.21926942700983
H           2.70405071834779   -0.42496067643193    1.02714004806365
O           0.05371450559042   -2.03050107502807    2.23769504666801
H          -0.37223540991901   -1.92893003125624    1.35297942988165
H           0.89992718132084   -2.44513845636582    2.04624051528280
O          -0.58473436541750    2.68146301464151   -1.84007732041829
H          -0.32888193163030    2.05433753524676   -1.13312107056030
H           0.22712912081407    2.92869888245036   -2.28581612813603
O          -1.61299489665915    0.44750509967727   -2.94116451888970
H          -2.30096959472204    0.13995764146396   -2.30985188537184
H          -1.42692074312474    1.37651622587943   -2.69247054162762
H          -0.35625427643572   -0.22912291771911   -2.48416314333865
N           0.63691007227599    0.53075740419340    2.39142571708362
H           0.22284761781953    1.15410037200980    3.07552839218917
H           0.34667424055272   -0.48442593384893    2.52568277919740
H           0.34937040314815    0.76425122205405    1.38605683917286
H           1.68200722020712    0.55469934230548    2.38838457147724
