    26
        -50.45450928  Gyration_radius:  2.45196903755 Dipole_moment: 5.292
 S           0.47196287131311    1.28738123060934    1.57572399129645
O           1.60928562865351    0.27705549858604    1.34994654966261
O          -0.65875319259853    0.93149553545825    0.73786307952335
O           0.20909493003357    1.35394507609792    2.96759321649278
O           1.03818076389415    2.62458010397593    1.05048539830534
H           0.62651501493876    2.81612501669583    0.15352550946503
O          -0.21734930056598   -2.59781120681384   -0.20009606509062
H          -0.00758393062080   -3.53024777142627   -0.13415687125735
O           0.13756782418408    0.66713570860338   -2.68363331244886
H           0.02739593398228    0.60231210520442   -3.63290858765250
O          -0.24075226505980    2.89473028467237   -1.16949375090112
H          -1.06256410680169    2.57961179562929   -0.77882005557860
H           0.03398808638994    2.19146423114655   -1.79166564422526
O          -1.70764809253603   -0.52081452808132   -1.28058848601618
H          -1.37786101477618   -1.40475148338638   -1.05942724586151
H          -1.51134654986538    0.01397126275403   -0.49144924953341
H          -0.64498057973718    0.20812028512349   -2.26284372413969
O           1.66300611316191   -0.78235972354763   -0.94087955855800
H           1.67092147371779   -0.10010842743279    0.39473532216039
H           1.02875345079268   -1.51007066869650   -0.77176196304195
H           1.25384370368062   -0.21141147268929   -1.61669817071817
N          -0.49471713916158   -1.56217593046323    2.24157683086711
H          -0.34031103243822   -2.26321321264691    0.73525365727038
H          -1.07538840185576   -1.92880402928105    2.98673472255056
H           0.42608026628030   -1.38884610602849    2.62869492534520
H          -0.85734043500517   -0.64731359406890    1.99228948208414
