    26
        -50.45260130  Gyration_radius:  2.49755334018 Dipole_moment: 5.353
 S          -0.83371564767813   -1.81022600212978    1.15267333444696
O          -1.57055085226202   -1.60485754374259   -0.12006557745098
O          -0.37348406890601   -0.48317081234246    1.62776750162750
O          -1.58451751529987   -2.52705381015770    2.12436983200601
O           0.45319556492720   -2.62131448243017    0.80097749788434
H           0.98550032793219   -2.09565991798618    0.16321523602635
O           1.86198600566370   -1.30878065445151   -1.04581316861742
H           2.21128156097569   -1.96572696731772   -1.65070914774786
O          -0.86375906533617    2.17786747322181   -0.98863615545534
H          -0.77730384147631    3.05687971990678   -1.35809837160798
O           3.23452964462912    0.75480495185845    0.10459613464914
H           2.82997265308019   -0.00310341637335   -0.35613790629701
H           3.68464028983692    0.39723062739018    0.87170083618821
O           0.85885881683055    1.79205247494853    0.88216187552391
H           1.76386122901315    1.57977199610015    0.57559524552377
H          -0.13666042410433    2.08828252979924   -0.29305521625111
H           0.52131837638507    0.96385612331446    1.27298031292597
O          -0.30211245321273   -0.35241558898604   -2.06296915302285
H           1.08480348195749   -0.87895686554364   -1.51833273312834
H          -0.84973079729523   -0.88914881458755   -1.44600298151264
H          -0.47973132110222    0.57470756974845   -1.83936783624099
N          -2.39563587755024    0.67342214396625    0.62360535241864
H          -2.04887418187275    1.40512123319440   -0.03199251320049
H          -2.39556792733678   -0.27385666128424    0.13494025366934
H          -1.60495419914783    0.43908887636741    1.30604535302503
H          -3.27334978868339    0.91118581749453    1.07055201460272
