    26
        -50.44612498  Gyration_radius:  2.48618373805 Dipole_moment: 2.147
 S          -1.94875841167007    1.04026650120776   -0.33322129063307
O          -2.24214587679126    1.55194456418702    0.98168795738355
O          -0.54367717073875    0.98081743092287   -0.66167865935696
O          -2.59435877087269   -0.25699771384415   -0.59049221867212
O          -2.60474237430751    2.05719529919053   -1.36745840263221
H          -3.47969803902555    2.18705455148417   -1.01426352695579
O           0.44328026116895   -1.83662831196473    1.17617070243478
H           0.14535105270962   -2.52470629958711    1.77251009690483
O           1.10702535320982   -0.95308491125036   -2.51554958127157
H           1.54572447026130   -1.64865718733093   -3.00910039564592
O           1.70055888879558    1.88601747998191    0.33537088257322
H           0.82812541573015    1.61268787432107   -0.03396073285280
H           2.01637539594466    2.58793096761832   -0.23561780809674
O          -0.78865495735092   -1.84255451549427   -1.07571690715085
H          -0.11521263142587   -1.40771489910173   -1.72818217849447
H          -0.30518138798821   -1.86528183153533   -0.17561284948000
H          -1.60717837649462   -1.15772375559588   -0.92578007620313
O           2.51455492572349   -0.61682196198565   -0.33347617135501
H           2.36062609493712    0.30914911756481   -0.05638378847795
H           1.99042957970045   -1.15050440868057    0.27858763541547
H           1.70541123585277   -0.72889176850168   -1.74821678418882
N          -0.04372758914915    0.41518437800796    2.32092280115601
H          -0.88895329137252    0.81128246743105    1.90209830190171
H           0.23580795008821   -0.93159730735590    1.64124555808799
H           0.71944502937920    1.03479345277181    2.06879066245159
H          -0.15042677634336    0.44684077754701    3.32732679316004
