    26
        -50.45071945  Gyration_radius:  2.45445776017 Dipole_moment: 5.474
 S          -1.87029227214173    0.49777826671776    0.31774320528654
O          -2.17950175064636   -0.07736618342362   -0.97089303037151
O          -1.34121781620798   -0.51920344093379    1.23984453105129
O          -1.02057860817550    1.66500739030607    0.27705962307599
O          -3.24952332453593    0.95934447702079    0.94302708536750
H          -3.84215179679310    0.31313840006502    0.57501215488936
O           2.35462813061577   -0.05124249194780    0.77772587856169
H           3.18387676095228   -0.27677562182932    1.20131895377859
O           0.21696633998567   -2.36384325470067   -1.96886714669889
H          -0.61730214080085   -2.82276469332927   -2.08623218045588
O           1.18030520480340    1.52549876233195   -1.30803587126398
H           0.40278375538196    1.74941107209624   -0.76705979683211
H           1.78065216569032    1.04459501942614   -0.72578281971954
O          -0.30971727478541   -0.04971726372019   -2.88230375283042
H           0.08827851774282   -1.45423250231504   -2.41838232156995
H          -1.10861168053678    0.04826293827587   -2.32840389302232
H           0.33475262252834    0.58832442058495   -2.50818921798199
O           0.57722260284569   -1.86841856479435    0.44626516716495
H          -0.26880748357478   -1.34091256873230    0.78602630948381
H           0.43656769546352   -2.09941806813909   -0.58763743937542
H           1.34819324981862   -1.20887160810375    0.52167488251990
N           0.75339719911581    1.20149805326330    2.39072875781903
H           0.06948479056467    1.50281029193599    1.69129866530599
H           1.80250054216081    0.48702041341865    1.44963546303265
H           1.00849636326159    2.00823658343871    2.94631593609933
H           0.26959821726244    0.54184017309415    2.98811083668486
