    26
        -50.46521633  Gyration_radius:  2.38432723892 Dipole_moment: 4.710
 S           0.14317526895800   -1.19025646571053    1.25194969183117
O          -0.27996066263346    0.19690016855937    1.08866038353454
O           1.08218831931693   -1.51376527998177    0.02137521786897
O           1.03333525807830   -1.29820028158780    2.40697752158678
O          -0.96045760277665   -2.11930600897847    1.22656902275810
H          -2.04839281493345   -1.67299874818039    0.11891050178272
O          -2.61752487413619   -1.43224433096627   -0.65835096488868
H          -3.22715401777552   -2.16399366753334   -0.76720395682202
O           0.01310795995152    1.52373393290630   -1.98305328911707
H          -0.08953180560504    2.21992582596181   -2.63258991350210
O           2.21211583468616    0.91584036457172   -0.41531193024042
H           2.04170497755897   -0.04270246288072   -0.39266067556750
H           1.47106757815848    1.27608680426321   -0.93878910251764
O          -2.09057599863994    1.31413135705811   -0.44152203420996
H          -2.60266962715960    0.53009534622480   -0.68070797055618
H          -1.49862500862608    0.98660790029267    0.26974097315340
H          -0.80513379976217    1.54089959723669   -1.41054489730067
O          -0.33179252379979   -1.21125954228201   -2.08853475864074
H           0.52950197633865   -1.50324920200297   -0.82655118758268
H          -1.23877923169933   -1.29653771113912   -1.73195834496483
H          -0.17788628772405   -0.25925272923168   -2.22543068682798
N           1.91675082974035    1.07003578197029    2.18607556692169
H           2.72759222958784    1.34812790693232    2.72988040756502
H           1.61436966337059    0.02189794139720    2.36676808335481
H           1.09750855572499    1.63366998675271    2.40024882357596
H           2.08606581379895    1.12581350635097    1.12605350880430
