    26
        -50.47096505  Gyration_radius:  2.40564823876 Dipole_moment: 5.279
 S           1.27573586332463    0.49961812780373   -0.29019902538456
O           2.71889951921174    0.13262759841742   -0.70476904111972
O           0.36334301428474   -0.32095567798273   -1.09128404434307
O           1.11739331710468    0.19621042499631    1.13511203366858
O           1.07628372315283    1.91384251217156   -0.55191233195037
O          -0.48229294061351    2.15324558993843    1.71147833950273
H           0.13231975936832    1.37981529862210    1.70676025118175
H          -0.02720573898442    2.78110348738902    1.13749574286810
O           0.65864422131932   -2.37818631752490    1.40678149507337
H          -0.25079227850381   -2.42181348429469    1.09038072545278
H           0.84472152097943   -1.41726583814001    1.48047244799497
O          -1.67203559608451   -1.44999795919035   -0.05249981119450
H          -0.82541007064482   -1.07019042317047   -0.43584466117256
H          -2.02323635216871   -2.03128797430618   -0.72931782131728
O          -1.04703455460178    1.80190804414568   -2.04557626201611
H          -0.82447306671082    0.94662476756475   -2.43066351837990
H          -0.21480465143183    2.03497066379621   -1.56265622364014
O           2.66184536875252   -2.44230842138397   -0.32552102342367
H           3.42666821948445   -2.69305962474558    0.19719062073474
H           1.87984876331574   -2.54683129333211    0.27278818114721
H           2.73963245994508   -0.86011065687739   -0.63874014178961
N          -2.34195674629292    1.15826961741919    0.15084631939870
H          -2.26081490427210    0.11676603906852    0.19150477620818
H          -1.94994181880461    1.46963287629335   -0.79624326514054
H          -3.29676611535352    1.46886194385890    0.29262911491507
H          -1.67857090571629    1.57851065941119    0.88178710272227
