    26
        -50.46254257  Gyration_radius:  2.39842474674 Dipole_moment: 9.375
 S           1.16462568104927   -0.40059063147100   -1.47898077252484
O           0.48246691899718   -1.53367542572423   -0.79672388365986
O           1.08893149603318    0.79102033366210   -0.63681786323591
O           2.47229380739985   -0.73940785379372   -1.92531826057912
O           0.25090252357627   -0.08528467304296   -2.72525207564228
H          -0.54121843490725    0.35436055463946   -2.36519555048957
O          -0.91647723864212    0.11093946428424    2.29376418153739
H          -1.09331351636072    0.00173508605003    3.22890670190647
O          -1.98665562745277    1.07689908603827   -1.63487346059423
H          -2.35441669447107    1.71072017429363   -2.25229311513446
O           3.30806912125139    0.10233578969814    0.66557063521074
H           2.60016522368398    0.60791664807883    0.23056364966559
H           3.67863299463223   -0.42531304995831   -0.04893917585331
O           1.23282841348669   -1.22305332181736    1.76271518247698
H          -0.02073393394810   -0.32663432601326    2.13241901361013
H           1.02474115631045   -1.51791562875556    0.85642770402989
H           2.07545359421564   -0.73654309069447    1.65409880578924
O          -0.85294356322520    2.19573150694228    0.40195833250682
H          -1.60019583156826    1.61061701014232   -0.87329262010439
H          -0.97709686379847    1.69451807199143    1.22088923107870
H           0.00443049009622    1.86681856848961    0.05706189043645
N          -1.84881434237485   -1.03583133607210    0.05468127099231
H          -2.43880323497307   -1.85720925421694    0.12356582822160
H          -0.84737294056416   -1.30106381627635   -0.34408472074327
H          -2.23695639590546   -0.33613128312030   -0.59308686103991
H          -1.66854280254135   -0.60495861335482    0.99223595214046
