    26
        -50.46074998  Gyration_radius:  2.48764857278 Dipole_moment: 3.721
 S          -1.56658357981789   -0.61270664440698    1.19778037283474
O          -1.52929313552285   -1.88664521110469    0.48505984507946
O          -0.47611701005958   -0.48403655011610    2.15111099425307
O          -1.69510172662852    0.49942278100506    0.28813940369170
O          -2.90035784645405   -0.63190419101022    2.06947011020561
H          -2.78099979114914   -1.35586958264928    2.67801852304697
O           1.79033253113597   -2.02130093794233   -1.49592556566639
H           1.93028837745862   -2.90212248659453   -1.14525519116265
O           1.39822995641740    2.30770314518535    0.22970083113466
H           1.87262201807352    3.13586065829439    0.31106318211607
O           0.48951369919645    1.23222685515097   -2.09847211269468
H           0.64062520054308    1.69991567948585   -1.25468245298706
H           1.34760801574556    0.88376081621539   -2.35391907733614
O           1.71586413133607   -0.43801565101112    0.60146917474821
H           1.77194714750876    0.51978359915736    0.46095782300301
H           0.96526269164972   -0.56236231119167    1.21373268638564
H           1.85120249387899   -1.41516360267388   -0.71142534930084
O          -0.57286787744093    2.19995405571318    1.94822556520810
H          -0.35565540133361    1.38571697989023    2.42851711149718
H           0.66364566752384    2.33905807681954    0.90441856553148
H          -1.20445194643311    1.87493392484060    1.27912214668673
N          -0.69118364843109   -1.15866028932836   -1.86036544292726
H          -0.49350933054160   -0.12619913373553   -1.85953284229743
H           0.24957037938877   -1.63302525008579   -1.89167696843704
H          -1.13651439125874   -1.43792974329998   -0.93289074532611
H          -1.28407662491053   -1.41239500663895   -2.64264059731587
