    26
        -50.45071865  Gyration_radius:  2.45463163302 Dipole_moment: 5.390
 S          -0.29817771662836   -0.20205595055955   -1.92869470119062
O           0.87867733288300   -1.03950955820907   -1.96271855099014
O          -1.40580834116109   -0.73742387367174   -1.17142861157468
O           0.03310872858578    1.16469558178396   -1.49835133356850
O          -0.78979387231178   -0.06900245171484   -3.42774207765171
H           0.03032992682262   -0.17609510289827   -3.89675292614871
O           2.96420780573910   -0.43186567632071    0.73497074196085
H           3.54383601455742   -0.39344867952908   -0.02847592482488
O          -0.69910163893708    0.96551332910129    2.17542386462000
H          -0.84326915371214    1.53849827100173    2.92964987361556
O          -0.83704964451363   -1.75458690299128    1.28098223977722
H          -1.17765953831212   -1.50017575573978    0.40535053750763
H          -0.80515106554414   -0.94257126650220    1.80087873872389
O           1.28995125645372    1.40972231422477    0.62127703738712
H           0.79945418873512    1.32799093406974   -0.30669640792531
H           0.57078851972326    1.22557617110058    1.31724568217098
H           2.02108503743706    0.63270132242788    0.68461159728973
O           1.51741719138935   -2.45686992686962    0.21276201997578
H           0.68799632180830   -2.39133911909919    0.73264811844123
H           1.28105496439200   -2.12949897886401   -0.67698803485864
H           2.42835186484339   -1.29566082868565    0.62228011861559
N          -2.32783924126370    1.50314855412400    0.22823878041286
H          -3.33188978329159    1.58993743149530    0.32277472405059
H          -2.13429395668148    0.67421029833440   -0.34028547262049
H          -1.98744814148806    2.29348859307615   -0.30617323734018
H          -1.40877706951973    1.19462127091955    1.47521318413710
