    26
        -50.46975342  Gyration_radius:  2.4454295352 Dipole_moment: 3.752
 S          -1.36492037215870    1.24543309247432    0.45176255677570
O          -2.09366848077542    1.56126060315007   -0.75186228543055
O          -1.53780276896445   -0.14738724331884    0.87419684285896
O           0.04085310397330    1.59555086036227    0.39394703979907
O          -2.02278418997499    2.11556653850215    1.60415101464555
H          -2.55705387928394    2.70832783466813    1.08740969484286
O          -0.94446122959999    0.21023994251126   -2.75169884850447
H          -1.49997122932006    0.77458292968458   -2.17535044428463
O           2.14832617672487   -1.36917089019105   -0.52591584967533
H           2.88167968969605   -1.97527769151095   -0.41868732045904
O          -0.20838078832525   -0.83953832984169    3.07259503649981
H          -0.77961288120836   -0.62345553065974    2.30717381683246
H          -0.50016383284971   -0.27424088446625    3.78949815187613
O           1.41199696643555    1.06812052976365   -1.89236552220035
H           1.91148033055444    0.29777756259176   -1.59271265214482
H          -0.04977272953396    0.62183661797780   -2.70718707760028
H           1.00403200146079    1.43963311990966   -1.09025225205998
O           1.88151895485566    0.06920911365498    1.60151577816632
H           1.30724793221820   -0.37861811604258    2.25231952380307
H           2.10610899723380   -0.82612579559083    0.32184180447290
H           1.31559317535357    0.76946546881882    1.22304638723898
N          -0.48833545909512   -1.64429521589635   -1.01478442412391
H          -0.93747057962846   -1.16675493595534   -0.19091463659545
H          -0.87061609654415   -2.57316712838673   -1.15264349980120
H          -0.69847463497080   -0.98392294790192   -1.85573321366566
H           0.54465180374305   -1.67504951432088   -0.85934960126922
