    26
        -50.45071892  Gyration_radius:  2.45613300445 Dipole_moment: 5.443
 S           1.12623081177498    1.59647380018615    0.21787157629230
O           1.42049658215000    0.61013372083765    1.23140186047305
O           1.68750183521775    1.32013340430292   -1.08423705724463
O          -0.31835762957372    1.85954744167131    0.13031302415156
O           1.77632550105702    2.95679818656720    0.70161473463831
H           1.93674472188029    3.38660300359536   -0.13126482555968
O          -1.73107910513282   -1.52744902073092    0.91061313052320
H          -2.55514469270800   -1.94091033125666    1.17120150346066
O          -0.46340338401217   -0.67893442631783   -2.97796685839650
H          -0.24823950253739    0.04471966418337   -3.56983115523284
O           1.07353905737290   -1.99168524683579    0.53862988972473
H           1.31516015950599   -1.12167489265729    0.90216349724796
H           0.12106310146254   -2.07825196108972    0.66500068555559
O           1.78747834598787   -1.21605039580705   -1.92475558964575
H           1.62903344287422   -1.69940239274230   -1.08589180917294
H           0.43413135530508   -0.99909792987050   -2.60609348769787
H           1.95604001035844   -0.29256774418181   -1.65329820871814
O          -1.72886494270342    0.17247921434474   -1.00751393070587
H          -1.20710365615965   -0.19844698697204   -1.86260811697420
H          -1.77134193450813   -0.57180400137733   -0.31492431087840
H          -1.14256294212776    0.92599396140418   -0.56289247788578
N          -1.02811049343839    0.34993476039800    2.55859981440042
H          -1.52421718644563    1.20743213131936    2.34732195773939
H          -1.48861419911599   -0.84355996820762    1.63150088310098
H          -0.07463903532590    0.48253242511503    2.21051634795280
H          -0.98206621115401    0.24705357411981    3.56452894285752
