    26
        -50.46162474  Gyration_radius:  2.55226323433 Dipole_moment: 4.679
 S           1.69833300710185    1.00168115431800    1.09969169889064
O           2.41858991694883    0.44493186113411   -0.03233892406136
O           0.60177596592790    1.87329407383422    0.66949571385911
O           1.23773521580380    0.02303134875545    2.05629181412822
O           2.73428433201295    1.93042493529330    1.86434258669726
H           3.17676437175756    2.42022675089575    1.17654827863668
O          -0.55721255463072   -2.11758244422159    0.00867974095879
H          -0.90362445732255   -2.97802955539476    0.24967820484632
O          -3.17536041076610    0.67846800811753   -0.90695204918728
H          -4.01056139799156    0.24421210835736   -1.08303532436938
O           0.74222754232525    1.18274025975239   -1.99390961064169
H           1.46490009492380    0.81276280351733   -1.45535991523620
H           0.37201611181527    1.87069919832540   -1.43000017574079
O          -1.29424692233748   -0.55525373841723   -2.23424306498783
H          -2.51402559210774    0.27712876932805   -1.53902366953973
H          -0.54409016142567    0.07393646574247   -2.31185782116171
H          -0.99379755900144   -1.23327541671641   -1.61291725342004
O           1.94561800489557   -2.09699767493672    0.68289850973334
H           0.42828885842898   -2.15960691360993    0.19396044265384
H           2.40051784649939   -1.49382019379906    0.07702608996436
H           1.76660438717530   -1.51505276176621    1.44805299462737
N          -1.41564745199909    0.26139610116888    1.02960830454454
H          -1.05489604171394   -0.67705146590511    0.74279487040584
H          -0.62937206104360    0.96904930060327    0.89416205000470
H          -2.22178153512223    0.50968556540029    0.39541036201721
H          -1.67303953009116    0.25300147019115    2.01099614638200
