    26
        -50.47391648  Gyration_radius:  2.44049020578 Dipole_moment: 2.090
 S          -1.81542811095470   -0.57675924351060    0.32053308795247
O          -0.71279994410545   -1.26508123804347    0.97699181015039
O          -2.36628619095794    0.51535061900916    1.09012145755053
O          -1.44959307088483   -0.19549141131291   -1.03555890029950
O          -2.98397954672452   -1.63743118519636    0.19749354750675
H          -3.72662551241449   -1.08851911648917    0.42084310842050
O           1.04496732469037    0.41721332574035    2.25767740220283
H           0.40140038913435   -0.25701670161660    1.98444506867606
O           0.17385922246064   -1.17222081580910   -2.88934312161658
H          -0.57869425782122   -0.87171428099087   -2.33805933429106
O           2.55968840068608    0.37166785537320    0.07071154156895
H           2.22233366739395    0.42892995107011    0.99578999949829
H           1.96284727095250    0.97232973272797   -0.43096478662175
O           0.48445443958201    1.68835678286470   -0.98720275505621
H          -0.24026688078435    1.04346234660106   -1.08177243404474
H           0.22124436706822    2.23633983507897   -0.23390348885717
H           0.54118092359120   -0.37210104724613   -3.27335741675361
O          -0.64580197932655    2.46303993997438    1.43745690679464
H          -1.06622125412991    3.18688622430263    1.90397013463202
H          -1.33725524173237    1.76983974931871    1.31911495957307
H           0.58197986069132    1.26303400837647    2.15086157777421
N           1.35941204851456   -1.81725086734478   -0.57741067187400
H           1.83386649497166   -2.70092286750276   -0.43295286901897
H           1.99275496768383   -0.96232920660449   -0.33122663244200
H           1.02233462067334   -1.70838881749507   -1.56439742554662
H           0.52062800175846   -1.73122359131436    0.05013924407553
