    26
        -50.45450918  Gyration_radius:  2.45168505789 Dipole_moment: 5.290
 S           0.21730225614879    1.35449830547825    1.57367886251938
O           1.27488872213984    0.24267372999536    1.67576015799732
O          -0.72046996459757    1.02844422498493    0.51460288964420
O          -0.34993415833341    1.54503889677326    2.85937347084725
O           1.01314854255586    2.59904206762360    1.12373091682666
H           0.82983672641321    2.76128793221828    0.14845013280337
O          -0.40124855905631   -2.58057922141894   -0.11222659613970
H          -0.29693151664947   -3.51911908285661    0.04916265124716
O           0.80885293848161    0.46573024114885   -2.60599489041720
H           0.91367179486472    0.34371666177698   -3.55024800830456
O           0.29298650758649    2.81665170625296   -1.33971528873623
H          -0.62053937774398    2.59209180794370   -1.13401964063287
H           0.63824597758237    2.05249410004393   -1.84389778720935
O          -1.40854556005810   -0.47731694264177   -1.61671004204306
H          -1.22032758407584   -1.36628067834577   -1.28014278412177
H          -1.34992261328303    0.09474153287380   -0.83146202335477
H          -0.08737973762253    0.09783956857360   -2.35786718671802
O           1.75679954691065   -0.97266504058582   -0.48407052754075
H           1.03663547307260   -1.63531044893076   -0.43177306526781
H           1.56714086001541   -0.41992883519915   -1.26411653217289
H           1.52097940481285   -0.20278953709664    0.78189136580979
N          -1.13795219602306   -1.35719183550996    2.14011345384136
H          -0.70500179766321   -2.17199645202310    0.74957800498959
H          -0.32114279430876   -1.23487143604581    2.72798987843500
H          -1.34091311376599   -0.43504835181463    1.76711063804555
H          -1.91017976738999   -1.62115289322458    2.74080195966018
