    26
        -50.47391496  Gyration_radius:  2.44017649184 Dipole_moment: 2.064
 S          -1.22580954419748    0.42873003140636    1.43168904776201
O          -1.72535569360340    1.72811094391518    1.04311719160554
O          -1.55864815957288   -0.63499892939284    0.49390659534591
O           0.19859101449075    0.42465355157774    1.72807953969551
O          -1.97525641096901    0.07755104799733    2.78113154588959
H          -2.33022305660789    0.93221652344592    2.99616304158263
O           2.09872004850988   -1.42207126122308    1.81993785079847
H           1.42547763426489   -0.73287293075510    1.99886166024703
O          -1.31850497373218    0.10845903862168   -2.14138271477185
H          -1.58984165689891   -0.18987606796903   -1.25768768752964
O           1.13092893934253   -0.93012248281120   -2.13408687855187
H           1.51647601703149   -0.17710539019348   -1.63136831239037
H           0.23295174392447   -0.60717876380015   -2.38367527915045
O          -0.61126715121344    2.61003581540825   -1.16073900141948
H          -1.12445550414897    1.05338733961646   -2.03860612010609
H          -1.04376875450310    2.33619221930019   -0.31782765738330
H          -0.92318444304979    3.49648923477050   -1.34848829243971
O           1.62367619368434    1.10225458130583   -0.46374868424709
H           1.07453557430141    1.79319423674594   -0.86138125548913
H           1.17552180040767    0.89171588669233    0.37577873761440
H           2.84737879681302   -0.95232988353715    1.44370152127408
N           0.41974184848654   -2.30334518607330   -0.06964444193874
H           0.77083168610908   -1.84945045066507   -0.99851912382714
H          -0.42706630045844   -1.74650847821056    0.20924041852985
H           0.19019587330178   -3.28368120227186   -0.18408583071484
H           1.14835447834482   -2.15344942377228    0.66963413960041
