    26
        -50.45376637  Gyration_radius:  2.46010118143 Dipole_moment: 4.206
 S           1.04594445508097    1.22483070893759    1.15496776659435
O           1.87458381595481    1.07182760380841   -0.13879663228048
O          -0.24082594485408    0.61581073457396    0.94476861652223
O           1.77881735221249    0.73350476265863    2.27409302215383
O           0.87434350237773    2.75413431855876    1.28187519706280
H           0.39667961971944    2.99788079744948    0.44514495481802
O          -0.09421640301367   -2.49866206021604   -0.30799607025287
H           0.25624339992712   -3.35522389948066   -0.55655287509343
O          -1.72610713643810    0.88951286602269   -1.94083497003579
H          -2.47702387566178    1.04683160870781   -2.51456940430021
O          -0.16477402481792    2.95892179787234   -1.08860844332248
H           0.61497405013161    2.76900777727750   -1.61711129637182
H          -0.81099553070611    2.25219793636029   -1.29357576332676
O          -2.29210007196020   -0.78414969490254   -0.01093366034257
H          -1.76389210095320   -1.57339337822712   -0.19991559280964
H          -1.72261316164897   -0.26419464425790    0.58034318406260
H          -2.04345334093309    0.28615588100585   -1.21027442325164
O           0.68162098962389   -0.39931032774927   -1.79534906549470
H           1.40940025114791    0.45162839797245   -0.82652101632940
H           0.41979235633935   -1.19480368939174   -1.27919132358840
H          -0.15212169089586    0.06498078409963   -1.99134045220949
N           0.88312713700417   -2.01939192401548    2.11221587435905
H           0.26639795468338   -2.29555513372911    0.60767470936410
H           1.65644456357837   -2.58558136280119    2.44182441096684
H           1.19180594276145   -1.04767710405599    2.13445657834761
H           0.13794787133951   -2.09928275647853    2.79420669475928
