    26
        -50.46185356  Gyration_radius:  2.44950383308 Dipole_moment: 8.672
 S           1.04968231749032   -1.90721528413193   -0.40480569741875
O           1.29378617878176   -0.72843966112590   -1.27079946282333
O           0.22403868241520   -1.48610119222133    0.72798984289825
O           0.52323045773837   -3.02060808995786   -1.12575624726311
O           2.45876765625413   -2.30458851270490    0.17298147531690
H           2.77038270525530   -1.52869134099045    0.65115261062598
O          -0.09450709083129    1.87071603816842    2.15362962674945
H          -0.54605587726183    2.61109873979340    2.55990859192172
O          -2.13841250576414    0.80683741651092   -1.20702091762485
H          -2.84716635449876    1.14699671175371   -1.75493771400849
O           2.11487829706729    0.13670232190044    1.50195319088868
H           1.88134350519520    0.70510756172084    2.24087885216752
H           1.33233650614930   -0.43318335968212    1.35543079751052
O          -1.82780545329943    0.02170071438161    1.49878399364689
H          -2.17174834514775    0.27126283796925    0.62964838516938
H          -1.18134381206226   -0.68694490442489    1.31485663730881
H          -0.77574094397171    1.14838444681927    2.05562438154393
O          -1.01781264406033   -1.18255169940111   -2.47596244628212
H          -1.79816076035245   -0.00667871408277   -1.67320502596338
H          -0.08673395142690   -0.96918610102876   -2.26976005064955
H          -1.07892612622414   -2.10767864588480   -2.21011134237048
N           0.38725301229967    1.55531435074601   -0.49343809675896
H          -0.60048896879342    1.46535593523242   -0.80756147300829
H           0.86106808050228    0.61121674365265   -0.73448617187836
H           0.86960067700199    2.30490994209340   -0.97735464152792
H           0.39853474752749    1.70626374489063    0.54236093182929
