    26
        -50.46185354  Gyration_radius:  2.4495473307 Dipole_moment: 8.672
 S           1.41147397016853   -1.35929447249091   -1.03125099036584
O          -0.04576337775936   -1.40591909519558   -0.90278960061825
O           1.88823834277105   -0.06101747479019   -0.49612209251091
O           2.08265578009184   -2.47520650134665   -0.44758504907256
O           1.73876021809306   -1.32614049550845   -2.57044038636796
H           1.26547920852494   -0.56320781666201   -2.91916161268450
O          -2.37698007823087    1.41019269583505   -0.71236486030775
H          -3.15094079452994    1.88853503900583   -0.41352422959081
O          -0.28391090849246    0.18648326347181    2.56279547682164
H          -0.27798987096177    0.33640315041423    3.50922968463699
O          -0.25145825714744    0.64456897378711   -2.50359799590168
H          -1.14240075175279    0.99143687949418   -2.60173470289531
H          -0.33924873507797   -0.13336067375625   -1.91572308951011
O           1.89627868810602   -1.10804427793752    1.93421862751634
H           0.50722971480620   -0.39010231169741    2.37176069343198
H           1.92466054563191   -2.02560002066337    1.63834471895778
H           2.11376586719070   -0.61991401738027    1.11607898822563
O          -2.12268381609150   -0.81064990618300    0.64970805863744
H          -2.40949708741449    0.51933115064044   -0.26437437119372
H          -1.44674003415170   -1.22336114676915    0.07818877257296
H          -1.64905080643536   -0.57638403341403    1.46010032978897
N           0.12704815996609    1.64640854256270    0.29378021323628
H           0.83715102073858    0.96327958301144   -0.15696811808476
H          -0.76455622308028    1.64770587727527   -0.25481973952025
H          -0.06550287578892    1.26919515602438    1.24402027172164
H           0.53398209083840    2.57466195226687    0.33223101307697
