    26
        -50.46162539  Gyration_radius:  2.55221082056 Dipole_moment: 4.691
 S           0.30392386476770    1.61921002148510    1.54364402000711
O          -0.45515478930803    2.29801624894227    0.52001259240513
O          -0.45979640488613    0.66177535012279    2.32449539781365
O           1.51929242923307    1.01871269474940    0.98682802341086
O           0.78538864755877    2.73526537781886    2.56475276578040
H           1.11195987984362    2.25222777707972    3.31896253584021
O           1.79310748142215   -1.62932680214523   -2.34393793221478
H           1.69291541345948   -2.06920401332499   -3.18869741314405
O          -1.77367589039688   -0.38705914320603   -1.22491750006428
H          -2.45319187404601   -0.34651849537929   -1.89950847854473
O           0.86072506027153   -1.57324095131539    1.64456636975979
H           0.24617488252528   -0.91132294101639    2.00963487453084
H           1.62650042564175   -1.04881110497431    1.38562538499675
O          -0.01911300022152   -2.54657847804003   -0.70154804386969
H           0.29714801367724   -2.34858069058860    0.20693842946258
H          -0.76874308700737   -1.95196834615470   -0.84470414975275
H           1.18872901227290   -2.10669725204109   -1.70777070886164
O          -2.66891233144336    0.92361242804368    0.82425405441042
H          -2.17181237585449    0.04615646451379   -0.41180750776254
H          -2.26539849624085    0.53418979294839    1.61367929212879
H          -2.07063249129541    1.67566855255068    0.64333585292085
N           0.74025709083137    0.64064447753389   -1.47264007442892
H           0.81141221691074    1.51095148395468   -1.98926454921366
H           1.11780300271653    0.80188278506377   -0.48841557576145
H          -0.26103658935512    0.35159467675194   -1.38830103229807
H           1.27212989892072   -0.15059992337365   -1.92521662754006
