    26
        -50.45476258  Gyration_radius:  2.60398039577 Dipole_moment: 5.772
 S           2.32845500907313   -1.19536698573368   -0.25213772073839
O           2.88837447329754    0.06877980131909    0.17901695311822
O           1.77356886842807   -1.95921551959003    0.87636619080912
O           1.35909583892759   -1.09451842503582   -1.31654232436078
O           3.55111744695799   -2.04787863866860   -0.80195340471322
H           4.24842297752962   -1.80144605073813   -0.20214719609265
O          -2.42770491339481   -0.51335519086855   -1.09409678663807
H          -3.18489421654897   -0.67471792186228   -1.65690157169850
O          -0.62670583186371    1.00723479543903    1.98710497050300
H          -0.22623698778756    1.14234140320441    2.84640705881033
O          -0.16485196957520    0.94182656882616   -2.04322233743274
H          -0.99739481845424    0.46108622546246   -1.94092676900239
H           0.51083282527891    0.23807601866478   -1.98482709030895
O          -2.45203966414857    1.85942324008148    0.08857303345437
H          -1.84610246177968    2.35411434796573   -0.47186431679397
H          -2.58299574808830    0.35034670229965   -0.63818240795130
H          -1.97017965348044    1.69363217743729    0.91441109997435
O           0.96309995513783    1.87660770160938    0.20931337596146
H           0.55556193820610    1.69356902425587   -0.66542603470577
H           0.03930112582559    1.38795310670839    1.30879075139088
H           1.76366861307314    1.30664911761811    0.22812876246957
N          -0.71869969998210   -1.43149347343352    0.88271751665791
H          -1.24611502462249   -2.14141819425629    1.38082015050551
H          -0.74956618353031   -0.51309743537768    1.39669271932842
H           0.33470442045034   -1.71906175706948    0.82409571014880
H          -1.12271630893010   -1.29007063825835   -0.05421033269538
