    26
        -50.44778545  Gyration_radius:  2.50277685497 Dipole_moment: 3.941
 S           1.58246901796502    0.39771341396926   -1.13928114811688
O           2.65884485117796    1.20822772400175   -0.63148301561087
O           1.49834654357820   -0.90247786748792   -0.44980538685758
O           0.28930673602869    1.04178409427688   -1.18114977228803
O           1.96314188833299    0.05632124607983   -2.64308442280142
H           2.90774961725865    0.17269823988492   -2.64966235525248
O          -1.70798186833944   -0.11957831673255    1.62363865073156
H          -1.86974720079527   -0.41108708584127    2.52197326437658
O          -2.22605500414127   -1.69190289138242   -1.87225267006645
H          -3.09093116960239   -2.10366379440598   -1.83570247345977
O           2.76509745487843    0.12520357408936    1.82626531378631
H           2.55731316673291   -0.75748340904264    1.50675766162675
H           2.94360375551547    0.63063571080838    1.01286662923434
O          -2.36935337386273    0.76650601329134   -1.03446474456065
H          -2.42033556264657    0.67084374357286   -0.07494214544655
H          -1.44211730647397    1.01189651497476   -1.21477448021051
H          -2.36159504691505   -0.71407707771654   -1.71777165462919
O          -0.67632503210825   -1.89654076387573    0.13180720452168
H           0.27241054099772   -1.48858900538106   -0.14901503008526
H          -1.10706474028243   -1.19634073572138    0.76280073909055
H          -1.25604432210266   -1.91335845249377   -0.71704646592178
N           0.27313835103574    1.48825462335489    1.62183374242335
H           0.21345641998306    2.40431489353403    2.04763584967426
H          -0.92086673260602    0.57340937503261    1.67318550432691
H           0.39784826659993    1.61127508295294    0.61869591240270
H           1.12569073979612    1.03601517025762    1.96297531311280
