    26
        -50.46155138  Gyration_radius:  2.57274811586 Dipole_moment: 3.452
 S          -0.35866399380230    0.75877693236123    1.99364584093429
O          -0.95987094432322    1.90997355042934    1.35603155268561
O          -1.12953660879235   -0.46024657072157    1.77409896211664
O           1.04155335724158    0.57373362006549    1.64965560228898
O          -0.38377629856063    1.03258032645563    3.55511726210569
H          -1.28940085957769    1.28707070891772    3.69964584584046
O           1.55112993066124   -1.91921806947954   -1.11437952776721
H           1.80566235008641   -2.77004506223513   -1.47333852798664
O          -0.60771938950066    1.79256171496352   -1.25328558120027
H          -0.79927696990108    2.02231191857702   -0.31595835157328
O          -2.80591486887174    0.40632306045848   -2.46053886465021
H          -3.62335291857259    0.84340265599257   -2.70096656965739
H          -2.17579767375856    1.10769633794366   -2.24221882677485
O           1.91426770649048    0.98914672832310   -0.88367697011846
H           1.73661745435093    0.94830800986477    0.07396937212867
H           1.99479519160825    0.07304390974844   -1.17339186167248
H           0.37095289158507    1.76852977367432   -1.30986170654877
O           2.03286286041426   -1.83385902289942    1.46794161668971
H           2.93035936990771   -1.72371492744616    1.78777750950857
H           1.58465740900583   -0.97126983064354    1.64101645987825
H           1.76816404227739   -1.94532587078615   -0.14528743757907
N          -0.92338403656925   -0.80863858122515   -0.79338375861501
H          -0.77883062150934    0.20716418852664   -1.06921058555679
H          -0.06969791113646   -1.35272921042010   -1.02204677442296
H          -1.07976843475222   -0.80032346864138    0.25639564792039
H          -1.74603104401030   -1.13525280180049   -1.29775033795649
