    26
        -50.46155117  Gyration_radius:  2.5730404208 Dipole_moment: 3.458
 S           1.13210015919933   -1.48399340260672   -1.09624814034505
O          -0.27833364288594   -1.55632952576678   -1.46226112430201
O           1.80753729342253   -0.37457526373187   -1.73349609470295
O           1.31125531132592   -1.51823193752020    0.34593431676035
O           1.80807169608629   -2.80957752950588   -1.64377809649147
H           1.79249815193850   -2.66760454269504   -2.58473337923622
O           1.08311937470756    1.89873988528724   -0.61351768426646
H           1.49264889337864    1.16158213708882   -1.12033365408196
O          -1.55945189838231    0.02903926021279    2.21194921001127
H          -2.34943157035601    0.00666292807173    2.75314699394976
O          -1.20866785258304    2.96142197653967   -1.96563099281861
H          -0.31118403422405    2.87896047136571   -1.61298845196932
H          -1.14269879017335    3.51364588537148   -2.74510468379724
O          -0.60990362380687   -2.39857531228259    1.87774895138760
H          -0.13693335227062   -2.83293698361114    2.59020400062584
H          -1.24447346179947   -0.90996842025658    2.13349784231522
H           0.07895059093546   -2.16310756103443    1.21071140614765
O           1.25527820623555    0.76863098236009    1.80206266057208
H           1.35497889554949    1.74448751535232    0.31594906187267
H           0.36930034097327    0.69444194165407    2.17521315225127
H           1.43004648942479   -0.08532723698126    1.36564840836356
N          -1.24629912659422    0.62596907002346   -0.43471977699919
H          -1.53311773647035    0.47133376680625    0.55061040358188
H          -0.99461536196533   -0.29901722786574   -0.89054021839106
H          -1.94382861893507    1.13756378523385   -0.97273294329376
H          -0.35684633274195    1.20676532849639   -0.45659115713119
