    26
        -50.44231596  Gyration_radius:  2.42767786529 Dipole_moment: 4.886
 S           1.14865585169552    1.41335993980545    0.70852667759086
O           2.57164805447609    1.40642742134097    0.49208593989581
O           0.34698125154041    1.17169879121335   -0.46578446153935
O           0.75623820881267    0.52409156166138    1.81032399370005
O           0.78680085855701    2.89866008410259    1.18717347103649
H           1.50966256604507    3.15442950215874    1.75346342581644
O           0.20264301214783   -2.36672069160102   -0.38366267461380
H           0.42370697901791   -3.22307240194482   -0.01404360582277
O          -2.82609560518093   -0.00563388664100   -0.53152975714586
H          -3.59552916087580   -0.54095594657537   -0.72840223588318
O          -1.86624970915541    1.87158035730510    1.35915974693310
H          -1.02046789745847    2.29455031403801    1.19592870519702
H          -2.26218559127911    1.70355541381800    0.49844002998048
O          -1.15406502365581   -0.90828971122969    1.25109353937275
H          -0.39139669242441   -0.20502993504795    1.56983149144693
H          -1.84514687825759   -0.40112935906135    0.71207778624289
H          -0.65901183185435   -1.51674322864439    0.60336543583074
O          -0.86003020001078   -0.44967160418036   -2.20966943968593
H          -0.33536588928094    0.23571862613918   -1.75479159881181
H          -0.51909368147456   -1.28880750757317   -1.87753255295099
H          -2.18458785662400   -0.11808995035096   -1.28268408450136
N           2.44200462058384   -1.10464532118852   -0.78904655962805
H           2.50022887120514   -0.85718365239030   -1.77026684660326
H           1.08616512731922   -1.86792900245743   -0.51288899856044
H           3.29513520025614   -1.59706276215119   -0.55067920935389
H           2.44935541587966   -0.22310706055222   -0.27048820793631
