    26
        -50.46248955  Gyration_radius:  2.47953759542 Dipole_moment: 4.745
 S          -0.12329039516584    1.88639444322832    0.64736571806308
O          -1.11005581774836    1.38027821245163    1.59986956921392
O           1.17330038607327    1.25335607894214    0.85760072522063
O          -0.59705227555816    1.79878793088975   -0.70845165965691
O           0.08044935636876    3.41966393287894    0.98240039633298
H           0.42247136291978    3.39076891085194    1.87014103301171
O          -1.04824634325671   -2.20623423035365    2.18140630659313
H          -1.00999121684797   -1.71113067580541    3.00207217600209
O          -0.40981372935973   -1.44828244910032   -1.62405923997966
H          -0.61129602988143   -2.09089955430836   -2.30497768897222
O           2.87908820880237    0.58759491380615   -1.09908989301280
H           3.19113224579121   -0.26113411545891   -0.77743536684066
H           2.33667798815871    0.95792909242895   -0.37507103721740
O           0.69793848998380    0.59336606564489   -2.69821226268713
H           0.20014829846413    1.22290465398422   -2.14203658142989
H           1.60444661752011    0.60969956689198   -2.32880977703580
H           0.02603645283097   -0.66302839405135   -2.09804072871357
O           1.03486580287362   -1.42906342527122    0.76632860695845
H           0.68898688855758   -1.54927917741956   -0.13166764771248
H           1.12187434490565   -0.46271647731536    0.88987409743416
H          -0.17221265290775   -2.05589728046861    1.73795750026781
N          -2.10314666303621   -0.64694769235704    0.33209839415528
H          -1.87934914374685   -1.38578629881146    1.06002122281680
H          -1.77085210299547    0.26860977032350    0.77222644781135
H          -1.53113840248893   -0.85509813996260   -0.51904152347141
H          -3.09097168025596   -0.60385566162984    0.10753122285338
