    26
        -50.46248948  Gyration_radius:  2.47965842838 Dipole_moment: 4.751
 S          -0.19578714903629    0.90941052243421    1.76866951698894
O          -0.13781004494929   -0.43343838078268    2.34352530521506
O           1.03668853793429    1.22210940848583    1.05500615577839
O          -1.38495485768539    1.10185978210135    0.98172392973683
O          -0.26255858597363    1.91759643927620    2.98675680626376
H           0.56129689559103    1.75222050735863    3.43375472784909
O           1.28541342224736   -3.00548009288521    0.20410847516846
H           1.70656570708693   -2.98666712107242    1.06570869114558
O          -0.93744314770366   -0.55959562499022   -1.92622654535902
H          -1.34211447955648   -0.83642433228738   -2.74891963636375
O           1.16612755908573    2.64990011592277   -1.20906734157029
H           1.83277108831467    2.15457216826105   -1.69011718942104
H           1.14654543651123    2.25956393686365   -0.31305091452501
O          -1.41737511923157    1.92582633139065   -1.54993475482897
H          -1.15445767885710    0.42715297379488   -1.82377862083305
H          -1.58640495765912    1.80369422784229   -0.59602043788390
H          -0.53996120963622    2.35863776506297   -1.58593040621274
O           1.62928083671890   -0.60399308352206   -0.82573259568165
H           1.50095862616576    0.04060941513530   -0.10139750685715
H           1.57743387225772   -2.17385116603090   -0.25391463330063
H           0.83631098003542   -0.53799657908391   -1.38010001151812
N          -1.09527535869506   -1.88891219997389    0.42831593202858
H          -1.18249896851909   -1.32132055456352   -0.44647089855892
H          -0.25896052468938   -2.53175842453698    0.31379271331383
H          -0.83059245014668   -1.25141638149046    1.24438004650770
H          -1.95319842961925   -2.39229964271303    0.62491918292542
