    26
        -50.46248963  Gyration_radius:  2.47970004429 Dipole_moment: 4.741
 S          -0.79725339220322    1.60828778974997    0.87762597031516
O           0.58241827712085    2.02081401033517    1.12938212681707
O          -1.05488195453565    1.50417199405575   -0.55382180904748
O          -1.14237544509799    0.42221795635658    1.61553733943860
O          -1.72071768181131    2.78136309346860    1.40275943300105
H          -1.45977815444576    3.51004126400354    0.84876566605097
O           0.34435710545617   -2.18587134987731    0.06527638524671
H           0.52910638224893   -3.12501603673146    0.09791064801417
O           3.11015267375213    0.42280372743328   -0.93767309379199
H           3.18677348841759    1.37872106663533   -0.95806483934504
O          -2.62208596810047   -0.35090302525731   -1.68659138161754
H          -2.10994858833462   -0.55720142169889   -2.47166977530682
H          -2.17238555802306    0.41314004050457   -1.27465201118154
O           0.68031743101262   -0.13009678051500   -1.79543102244589
H           0.50952685563417   -0.95399124256128   -1.31328199261512
H           0.07878942504899    0.53516091503964   -1.40524979258430
H           2.27599766668103    0.21138615574268   -1.43390501449563
O          -2.14013131415370   -1.80178672727470    0.54448738938595
H          -2.50032185650125   -1.42854408385201   -0.28574554363097
H          -0.64733828165328   -2.08685169782533    0.25973403346371
H          -1.96625174226907   -1.02058213695062    1.10386679741330
N           1.81591810831705   -0.25175989454077    1.26100012509232
H           2.25806698094513   -0.47897925877566    2.14471692798453
H           1.18372422866375   -1.02363109092024    0.94551148712884
H           1.26106432358471    0.65879663297475    1.33411292128314
H           2.51725698023491   -0.07168987951980    0.48539902542895
