    26
        -50.46862851  Gyration_radius:  2.47476976666 Dipole_moment: 4.022
 S          -0.41624195680146    1.40272198482215   -1.70402462559417
O           0.90954897659338    1.96589433168966   -1.85374989740952
O          -0.55412144613760    0.03616015184297   -2.12761899751288
O          -0.93212588055218    1.58824768524560   -0.33693515133106
O          -1.35809831887028    2.28345692590048   -2.63135957300290
H          -0.91495189424390    3.12463283276679   -2.59668152015459
O          -1.03935457473395   -2.32433157993079   -0.99122395917011
H          -0.87735708189918   -1.63012495521551   -1.65725401469898
O           0.03086637410819   -0.71250066731205    2.63463631218684
H           0.12950610365317   -0.68439463035295    3.58641839408684
O           2.36170373495887    0.24820351664880   -0.56051397291197
H           3.19189296005516    0.13060506121009   -1.02543852464701
H           1.82767316268136    0.87442463645161   -1.10843596044445
O           0.99505817737069    1.42852903058454    1.52393997360776
H           0.43652770410882    0.13423950881553    2.28130246901689
H           1.72401806867602    1.11139495091654    0.96915015027930
H           0.28964709860025    1.66031260811087    0.88763347559777
O           1.20794405702548   -2.07684002704309    0.41904812522303
H           0.90091062854855   -1.77808853072292    1.28564330989915
H          -0.16286399052171   -2.45840364645208   -0.56043076036418
H           1.64348441231050   -1.30739632285383    0.01378094026245
N          -1.90731253059488   -0.60429759392179    0.72842600932161
H          -1.33281177922089   -0.72897653843871    1.58374483056060
H          -2.89729894614784   -0.58405771194467    0.94339201213939
H          -1.60090705395806    0.30173421254136    0.27109855471449
H          -1.65533603502406   -1.40114524333992    0.02545242035049
