    26
        -50.46432136  Gyration_radius:  2.38758787471 Dipole_moment: 5.090
 S           1.42881698271777    0.03232849338596   -0.25867459614046
O           1.76355909148715    0.03345462780234   -1.74682812708199
O           0.39549597966956   -0.99810909457544   -0.02784230040440
O           2.62949385877397   -0.26887094657021    0.49819985772207
O           0.88394998147965    1.34433445564346    0.12046708609483
O          -1.14737832832705   -2.01492244090648   -1.95041614588047
H          -0.52691832682599   -1.77076053555233   -1.23292052108459
H          -0.75614353003694   -2.76329205078869   -2.40274852110767
O          -0.24740598670253   -0.97990703274324    2.58267178484066
H          -1.15850017444325   -0.69426706299614    2.44377991643645
H           0.06673844170003   -1.22723214047069    1.68896897339617
O          -2.15021287486386   -0.25711053563184    0.44785782564572
H          -2.66263573442368   -0.85133119452253   -0.10578433751957
H          -1.21634980669456   -0.46583615987874    0.24602878473638
O          -1.44675441831866    1.96335126799956   -1.06072896599909
H          -0.57493070576531    1.96759168848240   -0.62531308220484
H          -1.98426232615095    1.36686343297300   -0.51449589603786
O          -0.41737988324610    0.41469128751870   -2.94251251344975
H           0.90242425678972    0.23303892162586   -2.29486688718090
H          -0.86380580023379   -0.43700705311433   -2.77091638110623
H          -0.88587719607127    1.08832437051067   -2.38680066174731
N           1.60497830501909    0.88374572158140    2.52141849447107
H           1.18880639335395    1.44460952434082    1.73000607021541
H           2.00811086116780    1.43126262147168    3.27397737531633
H           0.86068132103279    0.19588423999861    2.82661259296059
H           2.30549961891111    0.32916560441340    1.94086017511039
