    26
        -50.45601905  Gyration_radius:  2.44971488819 Dipole_moment: 7.018
 S          -0.76838156075008    1.55066764898839    1.04078595841304
O           0.50117751491870    0.78191099249955    1.07342113935324
O          -1.46148412261607    1.36278323874161   -0.22043030527927
O          -1.57639935373575    1.19853947054277    2.18870907952719
O          -0.34943492107221    3.04990705640108    1.15497994298080
H           0.16943768868787    3.19505604837509    0.34163089651530
O          -0.30962210868268   -2.60548437062255    0.26479123457560
H          -0.14542016695692   -3.52823899858357    0.06600242133604
O           1.19454107356321    0.12499850216104   -2.57199640484295
H           1.26012338390503    0.15272489790213   -3.52707179511099
O           0.56668011542533    2.65544678396276   -1.35127781389157
H           1.11369014572072    1.93342555203902   -1.69401771106635
H          -0.31557477725698    2.26053605511042   -1.26039898647581
O          -1.18093375252004   -0.76605260759824   -1.78574075992478
H          -1.08302894330216   -1.48423263106092   -1.14722590381215
H          -1.42092104706628    0.02014092163848   -1.25516307346694
H           0.27784051279214   -0.19022678595804   -2.36560027351850
O           1.79394037103959   -1.16463439274313   -0.24584272723597
H           1.49892929854740   -0.36956531025044    0.23593448995066
H           0.53516949550197   -2.11106341057010    0.03076287343136
H           1.81738879086114   -0.86728619832308   -1.17067292172683
N          -0.43023792250840   -1.09142219570618    2.47961642811730
H          -0.59490934097919   -1.84233118290399    1.77515972989242
H          -1.24052787805470   -0.43753601115054    2.58912086732059
H          -0.08056463516836   -1.44618996521603    3.36279520084982
H           0.22852213970947   -0.38187309766993    1.99172841408708
