    26
        -50.45792409  Gyration_radius:  2.59345314771 Dipole_moment: 3.554
 S           0.98551429250148    1.75410410371469   -1.02003844571734
O           2.38831567728749    2.05798012874152   -0.85968540987891
O           0.73328486649588    0.70026230682393   -1.99923766864896
O           0.27913620969464    1.49411156533760    0.22014384288938
O           0.31234210547523    3.07338588888206   -1.61236852945423
H           0.94948469574691    3.35909055508993   -2.25966763015885
O          -2.12513569925890    0.50088588802123    0.97134405097930
H          -1.57630196631206    1.24338981846189    0.67064797865657
O           1.33623782746756   -2.15996686103873    0.60655062954664
H           1.89183782317901   -2.91360182533454    0.40412083708240
O          -3.48572040690302   -1.26443576086550   -0.84016435163382
H          -3.31539452953974   -0.60054017780389   -0.15707145039170
H          -4.43041163060562   -1.25908223410544   -0.99687169704800
O           2.85394097293681   -0.00544529295004    0.67455271194313
H           1.93057369614768   -1.36729813349604    0.57539395593351
H           2.75898770027253    0.73767569024198    0.03674237524263
H           2.81288742059174    0.39855043258643    1.54495426849695
O           0.08649942876335   -0.19837195192696    2.37900886996125
H           0.47260989582256   -1.02606786232425    2.07359197013612
H           0.34562837102375    0.47338272501865    1.72551627118489
H          -1.66617478840077    0.19556096234733    1.77629891194597
N          -0.71370026280723   -1.06295638123888   -0.79340977939590
H          -0.16048418525466   -0.36568710842362   -1.38708482888264
H          -1.39419374451811   -1.58877299480445   -1.33924685763646
H          -0.02478045498291   -1.67030557637632   -0.30887643327680
H          -1.24498334487763   -0.50584791453548   -0.08514357188686
