    26
        -50.46869420  Gyration_radius:  2.51894116066 Dipole_moment: 5.463
 S           0.26918747740017   -0.11677450115642   -1.03037231421085
O           0.53807158627310    0.07299073484529   -2.54271415664193
O          -0.83977882751616    0.76076992856362   -0.64047448517562
O          -0.05154084615888   -1.50911061054027   -0.76425241387916
O           1.50693855373752    0.29413917847069   -0.37024302022897
O          -2.58876820830677   -1.30824394657959   -1.43580039557039
H          -1.69300504704749   -1.56471694815634   -1.12530836152359
H          -2.70946595933599   -0.41279467208213   -1.10394079291739
O           2.67585095807641   -0.60132536492040    1.78783057745125
H           3.60610605092438   -0.39574119655571    1.68131331351252
H           2.26253184116956   -0.42092244474709    0.90884923883550
O          -1.15776165241683   -0.54887322039919    1.58466104908159
H          -0.81688650285528   -1.38230213475732    1.23751613140045
H          -1.19081450314858    0.02433597121792    0.78141377378958
O           0.74148096376365    2.52238472497153    0.74829628406860
H          -0.13703138946141    2.51087704250601    0.34804481479442
H           1.20836230765997    1.82053193324592    0.23755221758754
O          -1.51600159002617   -0.90818637719941   -3.80445405493816
H          -2.08998217113037   -1.08426950735390   -3.01626146033709
H          -0.25010258841763   -0.24270101281660   -3.06560190770424
H          -1.26022450004534   -1.76704861783783   -4.14752030531241
N           0.70092328374569    0.86372187454763    2.78896474716361
H          -0.10701702470907    0.24783073203447    2.46987454884733
H           0.60925134046244    1.15598362613812    3.75489829811108
H           1.57479944308765    0.30767585878736    2.61360399999255
H           0.71487699424687    1.68176895979655    2.10412467384075
