    26
        -50.46463404  Gyration_radius:  2.47178100262 Dipole_moment: 4.144
 S          -0.49613005778848    1.81520820628325    0.15620656678608
O           0.54062193186908    2.59409096179687   -0.47321250100956
O          -1.29879705585862    1.05198201536552   -0.81474183701237
O          -0.07331720068051    0.95919220488897    1.23653319052550
O          -1.50206366319771    2.87667980920100    0.78943041211349
H          -1.24568509832584    3.68070290424025    0.34975576669735
O          -1.26921471040426   -1.14602532811734    2.63979555446601
H          -1.31464438203338   -0.18237186960667    2.63265189556315
O           1.40612982160424   -1.93708343871816   -0.34669764980415
H           1.87277794893664   -2.53389527666238   -0.93329635738492
O          -0.10891237978460    0.66075233108513   -3.16682755181010
H          -0.01641835000202    1.50983947884009   -3.60244320309203
H          -0.64603266389162    0.82773785971357   -2.36450753324946
O           1.85695036820218    0.42326659222175   -1.32064378263333
H           1.63962727887490   -1.01362517951103   -0.65426150688159
H           1.33115318735941    0.39536480420143   -2.14461919001737
H           1.56138315578635    1.23967230807580   -0.88041605013626
O           1.37049640141272   -1.09213596277102    2.34876378333032
H          -0.30512956036601   -1.32219723191245    2.75976622124034
H           1.59151850322511   -1.56981952689992    1.53837053844379
H           1.13657764257857   -0.19941473840921    2.05015385126431
N          -1.22271403888031   -1.42906787780978    0.02598493478971
H          -1.33480649889589   -1.38945441745543    1.09184139609635
H          -0.24840988486110   -1.74665863965801   -0.17761993548184
H          -1.90940804324252   -2.03680311159694   -0.40741534929104
H          -1.31555265159971   -0.43593688673875   -0.33255164352069
