    26
        -50.46461193  Gyration_radius:  2.53576061442 Dipole_moment: 3.094
 S          -1.43638847548810    1.04992084991033    1.13244003968383
O          -2.21042410557325    0.84607720816887   -0.07217745295869
O          -1.24060424424357   -0.18562649304472    1.88066019935410
O          -0.17846259734387    1.74742183231844    0.89605948662244
O          -2.28328901082983    2.01389846393889    2.06274383438431
H          -3.15550272765884    1.63523548752784    2.01983080715421
O           2.27332813595831   -1.22515641727661    0.75330393339152
H           3.08931953114476   -1.64054342039726    1.03336203600374
O          -1.13679370378468   -0.87535344945439   -1.75516491862096
H          -1.70921328769428   -0.25305391674544   -1.25330453339356
O           0.32254673247464    0.69542804709105   -3.68427173698271
H          -0.08232504932728    1.11468600647334   -4.44412522326592
H          -0.33178300497519    0.07595823418293   -3.33302570913408
O           1.23197310836891    0.23906990876774    2.66095547401570
H           1.93817973614225   -0.70414715229690    1.53604219572316
H           1.18505179441472    1.13402253558199    2.30243711637308
H           0.30237278689596   -0.06335337575894    2.59029787329537
O          -0.38445630569983   -2.26409336037334    0.37723238085536
H           0.56842936631422   -2.15940999596335    0.50215162459028
H          -0.79802797286738   -1.63587611478751    0.99796837272357
H          -1.00383260806321   -1.62912078530987   -1.13825878397267
N           1.03999789894157    0.42688334647246   -1.01736426195882
H           0.22385580716478   -0.16001840661382   -1.37954881615649
H           1.43334864599539    0.91502145077252   -1.82038522791339
H           0.62215957819072    1.08883649126811   -0.31029363792108
H           1.72053998145420   -0.18670697443833   -0.53756507181207
