    26
        -50.46461192  Gyration_radius:  2.53606791538 Dipole_moment: 3.099
 S          -1.46648489182284    0.94646044674542   -1.18572012897903
O          -0.31760014002811    1.16380909858640   -2.03707644852305
O          -1.88566393263104   -0.44950494379181   -1.16647905918227
O          -1.29376978807686    1.48108843204078    0.15930649796653
O          -2.66471783431768    1.77085886964937   -1.81558364905211
H          -2.60785073540971    1.55099531559523   -2.73996085036501
O          -0.24911002541970   -1.70236826936704    2.06721139258357
H          -0.35215955307300   -2.28858329843731    2.81725746682459
O           1.80852835443283   -0.23393644501305   -1.34843538384670
H           1.12761383513887    0.32594279628996   -1.78400151539977
O           3.43538670754997    1.51406013609509    0.26793182238465
H           3.18338889240130    0.93591319636437   -0.46532921014362
H           4.04240183797577    2.16055108842320   -0.09379411517168
O          -2.52810427119932   -0.60950153365363    1.37604168471530
H          -1.15798812346937   -1.34480444347089    1.86060816949502
H          -2.39247586823565    0.34241636377050    1.46137453105306
H          -2.46982839628118   -0.74229861209065    0.40676024822972
O           0.13172033899565   -2.20002581752935   -0.74302646281377
H           1.39926560414810   -1.12705849111660   -1.31622630051405
H           0.06717468356453   -2.27710452171657    0.21839199752328
H          -0.65205002857211   -1.68776486339478   -1.01559680144954
N           0.97300110023775    0.50011600540660    1.04816586661854
H           0.70934116714229   -0.30903420865555    1.63636048007834
H           0.09795252108889    1.02483128971705    0.78087572804279
H           1.67013909304893    1.10330616313306    1.48176521170138
H           1.39188945304803    0.15163627646491    0.12917881820648
