    26
        -50.46162538  Gyration_radius:  2.55223968246 Dipole_moment: 4.691
 S          -1.41378072534369    1.67583204553538   -0.53835102036287
O          -0.53387836751859    1.70197356285204   -1.69374146158091
O          -2.01788172772311    0.35451401194382   -0.34619415563049
O          -0.81119517684516    2.15315091969936    0.68394992222051
O          -2.60741247888351    2.66782033864256   -0.87222081190374
H          -2.85988449293229    2.45334460333247   -1.76610418758339
O           2.00633176676128    0.14672084837668    0.86556670210162
H           2.74477713691535    0.25495762766077    1.46673918206418
O          -0.14449065088311   -3.13220478550601    1.23715415550644
H           0.36827532517675   -3.75548901299808    1.75264586705482
O          -0.44299340022349   -0.93086543044928   -2.20518156923211
H          -1.26391649035567   -1.06099908169011   -1.71783605008260
H          -0.32482464047366    0.03612903719539   -2.19595490976947
O           1.37487359500319   -2.15870081916994   -0.65145582934242
H           0.41748782426275   -2.89677002261284    0.44553901749553
H           1.77367110586620   -1.38145844945552   -0.23560380268671
H           0.77419562913755   -1.80211759066909   -1.34179281795406
O           1.61552699867441    2.44417928234518   -0.26928375430782
H           1.92743798552316    1.01730113963633    0.37243213239490
H           1.24243868103435    2.27145945731429   -1.14601610946454
H           0.81118846159826    2.60517530046126    0.26301854999762
N          -0.52986028101523   -0.53609451273509    1.60062344787359
H          -1.18573121531265   -0.20705874603598    0.82670812091823
H          -0.85353068711270   -0.14862447862792    2.48071198340110
H          -0.49545580778912   -1.59089494458134    1.60407902065423
H           0.42863163251948   -0.18128032040115    1.38056837822140
