    26
        -50.45792489  Gyration_radius:  2.5913843261 Dipole_moment: 3.519
 S           0.83504346969244    1.64464935546208    1.28638534285500
O           1.93402290158301    1.44683775545723    2.20215877283666
O           1.05748444967727    1.11692941948818   -0.04672883177516
O          -0.44757579468026    1.19581898823167    1.82122602185626
O           0.70184384728285    3.22233893487047    1.09123448801586
H           0.84301230658892    3.55308575696656    1.97281823288980
O           0.11309468011206   -2.51595828516883    0.73193669909706
H          -0.04653266949821   -3.24813324354263    1.32865344072832
O          -0.42824178700047    0.65541636854132   -2.25372981138541
H           0.09231750352143    1.24317770511957   -1.68077336247890
O          -3.26025370549291    0.30560028589710   -1.92611286595045
H          -3.92422043072836    0.69525094200610   -2.49554857954370
H          -2.40065475698533    0.54219732702566   -2.30213048057101
O           1.43072430015296   -1.18433607849837   -1.51283821563567
H           1.51878381754221   -0.40948937949957   -0.93239811853834
H           1.06562029677306   -1.88563107948987   -0.96305438006931
H           0.19105103837327   -0.07163557435091   -2.44904785326110
O           2.13386344599654   -1.10544102513488    1.67257604450079
H           2.05087418361621   -0.17328891971551    1.97518931897090
H           0.84151198702738   -1.98410117924535    1.14236947202670
H           2.85521209348140   -1.10430661528941    1.03834196025766
N          -1.45366074204269   -0.40328929918852    0.06380874664935
H          -1.05804447132900   -0.05784666871438   -0.84095167883058
H          -1.04030409903729   -1.32770618585137    0.29283378187700
H          -1.13835272768387    0.28217631718974    0.82247643090708
H          -2.46661914684763   -0.43231562261022   -0.03869456543131
