    26
        -50.44796709  Gyration_radius:  2.60802177892 Dipole_moment: 6.024
 S          -2.27620821609270   -0.76166226728674    1.42152164263869
O          -1.23574917897368   -1.75447390772286    1.30406244397669
O          -2.14939238931448    0.14222752978085    2.53943308346039
O          -2.47109927647528   -0.03157978378452    0.15681445856080
O          -3.63082712540896   -1.56393838398098    1.65672811004559
H          -4.19620234262565   -0.91254671348193    2.06098404692698
O           0.45370955532465   -2.05770038284345   -0.64011081859285
H          -0.20963027970380   -2.18946353478518    0.07976693138143
O           0.29095951249388    1.84532138401230   -1.55912127298553
H           0.24784638784409    2.49050564019476   -2.26563364406099
O          -0.02714960626629    1.14639223139176    1.31824651075155
H          -0.79846387871082    0.83979455027011    1.83548791657890
H          -0.36547961143204    1.57150542133821    0.52399500796227
O           1.95656075528172   -0.55460052473402    0.97706089235142
H           1.23407129076422    0.10449209755518    1.13711079383654
H           2.00562653920919   -1.07238261684332    1.78269252245720
H           1.16508746827289   -1.55429673947743   -0.18246810609500
O          -0.98499078352644   -0.38083950845173   -1.77665915367663
H          -1.69777004514395   -0.27515831491066   -0.99320357905526
H          -0.48684145774303    0.49982134033022   -1.75886978618358
H          -0.31837609366824   -1.13220259458852   -1.39224026056182
N           2.81484976850081    1.10320371536855   -1.26959941181259
H           3.20426963409334    0.54916280119226   -2.02216338432542
H           3.47200153315822    1.84117172563494   -1.05056206280623
H           1.25911363464360    1.60341560015548   -1.43273220454561
H           2.74408418549720    0.50383124565554   -0.45054069623369
