    26
        -50.45549981  Gyration_radius:  2.44717161261 Dipole_moment: 8.155
 S          -2.11628178922922   -0.74891638216150    0.22485756898088
O          -2.08000542863543   -0.24720374154778   -1.17325715303529
O          -1.11599131678314   -0.01364129121248    1.00980837752766
O          -3.42163939313062   -0.77740606289488    0.78126373475267
O          -1.55887848593873   -2.22631124637599    0.15523472269815
H          -0.58685776782995   -2.14748596292694    0.13266310236094
O           1.22900643899532    1.91621694149509   -1.00132295189133
H           1.66144928994985    2.75035136909090   -1.18642187721087
O           1.12723850105460   -2.03552728667150   -0.10258391491104
H           1.60005543897310   -2.80635031555200    0.21333067199703
O           0.54636804575877    0.39490347525411    3.03303858475650
H           0.33548735909315   -0.21915716646650    3.73749345884421
H          -0.17062704331581    0.30749907429342    2.37365262001672
O          -1.22800611008029    2.26921035749496   -0.22325054378619
H          -1.86798801093714    2.00557978772097   -0.89156602982821
H          -1.21576211235747    1.50269825564609    0.39656787756368
H           0.31224751949342    2.13976208173696   -0.66526695293100
O           2.18334103600282    0.07316782081461    0.92285988049944
H           1.71609047425513    0.23462985463605    1.76919629376704
H           1.54056763423518   -1.23517539619708    0.36108824904913
H           1.91321934786610    0.79772193205344    0.33673845720382
N           0.26438216943656   -0.39005462740995   -2.06984035893406
H          -0.80257190808778   -0.31967493074735   -1.70185109369767
H           0.29111213994393   -0.56459943906169   -3.06785082882584
H           0.74088287925181    0.49848935158077   -1.82592358807694
H           0.70316107201747   -1.15872644259226   -1.53865830688732
