    26
        -50.47066093  Gyration_radius:  2.5013463836 Dipole_moment: 4.642
 S           0.66786616615455    0.13562240598616   -0.84806653813487
O          -0.55986842745232   -0.50372134327775   -1.30789043549145
O           1.57583568864025    0.40892780349999   -2.06352635874701
O           0.36571029799820    1.42052548985283   -0.19670251322085
O           1.42718953828581   -0.72147935219838    0.04976614183605
O          -1.70470572448778   -1.47342560744203    0.88758017086367
H          -1.44212382714567   -1.21075797412268   -0.02003236508179
H          -1.08314950776639   -2.19985229462621    1.10989539428326
O           1.78103249501652   -0.34220844603953    2.62901946798616
H           2.56704341557833    0.18020524245704    2.79427747017827
H           1.76441812239154   -0.50533854303934    1.65580085442330
O           0.50640491574363   -2.92458671362973    1.30429075574034
H           0.95581965437544   -2.79605287762503    2.14307714591760
H           0.91629415558623   -2.28766672980606    0.68954657698136
O          -1.74094305983900    1.80404242004608   -1.83617124280357
H          -1.63288544950248    0.84343892950283   -1.70478362168473
H          -1.12052984786791    2.17707048768820   -1.19408901047685
O           0.01350810700381    1.54593311845365   -3.79135068503577
H           1.03494884885352    0.88571092660520   -2.75539462099429
H          -0.32595051980244    0.86010771995821   -4.37069119205250
H          -0.73271692291909    1.79837684005547   -3.19144307277032
N          -0.66454116859976    0.60072666057144    2.03694852979454
H          -0.28857405848828    1.07736429797840    1.16008831782971
H           0.17529395808006    0.27971115155688    2.56114409514796
H          -1.25278556920468    1.21639505980963    2.58744044766447
H          -1.20259128063325   -0.26906868221210    1.67126630784914
