    26
        -50.45549985  Gyration_radius:  2.44721928705 Dipole_moment: 8.161
 S          -0.14844987133165   -0.98373797350595    2.02441078193147
O           0.31129380234211   -1.31223455231232    0.66864312972926
O          -1.42347638878048   -0.22805419029003    1.91941318870782
O          -0.21332255738853   -2.07910041338731    2.92457044919515
O           0.91301318307443    0.05626764070447    2.56282611405366
H           1.19795966460180    0.57774667624254    1.78919875105809
O          -1.43245418399512    0.48372829464248   -1.97477849344080
H          -1.91625831230725    0.46466767041408   -2.80104303980471
O           1.58279681263495    1.64172389538445    0.47592574072498
H           2.44796994776906    2.04406875655268    0.56050707913952
O           2.08911980976374   -1.97316284361833   -1.18177143882008
H           2.88340113517466   -2.29053168090206   -0.75032064691457
H           1.41800956516292   -1.87635737872668   -0.47689299972523
O          -1.99605439974338   -1.57876371976773   -0.49267864832513
H          -1.66693739768058   -0.36004590578044   -1.48875003141946
H          -1.08625352603905   -1.64586856431887   -0.11894304357945
H          -2.53483413561661   -1.34912533430957    0.27064871916332
O           1.39420622948981    0.54068536075438   -1.84018682230009
H           0.44077179698853    0.45840846894638   -2.00057852517103
H           1.56817132011551    1.17956392025958   -0.42568542469682
H           1.72146247252722   -0.37762579213108   -1.73870485985498
N          -1.11952096901818    1.75690504778902    0.40706342233495
H          -1.28928863579633    0.87825065321055    1.09859728450291
H          -1.31973999104428    1.44002567979888   -0.56014725336203
H          -1.70483356002633    2.54143781984997    0.66995587512217
H          -0.11675179087530    1.99112847450167    0.47872069175128
