    26
        -50.45549980  Gyration_radius:  2.44724920933 Dipole_moment: 8.156
 S          -0.77978318933496    0.78187148116972    1.96768722323857
O          -1.85292616537752   -0.14319837115540    1.52005520242426
O          -0.07326722671719    1.28446903749965    0.78214448805294
O          -1.23313621137481    1.77849488926911    2.87078735466061
O           0.28011011768453   -0.13036365540099    2.70467711736323
H           0.82301456580137   -0.53513281976148    2.00261415966184
O           1.67692160152947   -1.41669512036637    0.77761843551966
H           2.55257222749196   -1.69041568905808    1.05300088736099
O          -0.83050445222319   -0.53343487530864   -2.28285521964583
H          -1.10561092055021   -0.52129708751666   -3.20008158942892
O           1.94977979351853    2.35464466876182   -0.55429722478927
H           2.55848473792990    2.75272248807840    0.06927635960658
H           1.15962061063653    2.10054147001149   -0.03702911034386
O          -2.05375915170493    1.29745485210986   -0.89772137025904
H          -1.30657900775875    0.22457804771451   -1.83331173253613
H          -2.71157712847236    0.92946151557921   -0.29975464104614
H          -1.28097963566763    1.46883209723244   -0.31010536534684
O           1.85545374944605   -0.17417264315223   -1.46676238196485
H           1.99261321726456    0.77188478779862   -1.25044478226720
H           1.79694711193231   -0.89077751733462   -0.07999290105855
H           0.96603864973538   -0.22452463517635   -1.85139792879882
N          -0.87713936363433   -1.93233550437044    0.04803171277579
H          -1.34816379824770   -1.14793357407839    0.71270113391855
H          -1.36834981995759   -2.81524985312383    0.12773608582071
H          -0.89547092700512   -1.57295815807303   -0.92485577459561
H           0.10569063505477   -2.01646581134950    0.35227986167413
