    26
        -50.45549977  Gyration_radius:  2.44734557256 Dipole_moment: 8.154
 S          -1.69301196933496    1.47705256696889   -0.21311334080005
O          -2.00588364882533    0.78320515065687    1.06302671654188
O          -0.90802814174508    0.56730964013721   -1.05775791346788
O          -2.83031692706447    2.05350938098352   -0.83644227078533
O          -0.68349731903859    2.63058831659918    0.17279955481105
H           0.19382057838494    2.20991196658365    0.24245084133290
O           0.37413058810842   -2.35887008430962    0.69444783374896
H           0.47179804716061   -3.31005537952214    0.74670309013105
O           1.72500629209900    1.46120885754061    0.56159473476071
H           2.46703231130202    2.05279655173189    0.43144799291129
O           0.75861862894923   -0.08824274327812   -3.01145255989391
H           0.03685471138191    0.14590670295287   -2.39457074258330
H           0.85728368061910    0.65999162224221   -3.60154978439786
O          -1.93806870714632   -1.69052575969352   -0.29266100387149
H          -0.51364235206720   -2.18736384977205    0.26351868699769
H          -2.53113916485148   -1.32525941490912    0.37105347667502
H          -1.58952608228256   -0.89111367332619   -0.75249924188187
O           2.12954747066286   -0.69615560306850   -0.77839450534905
H           1.89937026946657    0.64976793091101   -0.01958784882416
H           1.55997791815575   -1.36054598148423   -0.35938468276146
H           1.74575597237954   -0.54821583167704   -1.66808658375638
N           0.11541941390778   -0.05755065380493    2.11833083962777
H           0.29109306162796   -1.00752326406187    1.74039934712272
H           0.07307466382653   -0.06203626628661    3.13093924511169
H           0.85125872162560    0.57855084177645    1.77247802601583
H          -0.85692799730236    0.31365897610882    1.67631011258339
