    26
        -50.44980274  Gyration_radius:  2.59212689321 Dipole_moment: 5.065
 S           1.26263954183391    1.15762878842631    1.65555012815316
O           1.43131432349713    1.47589184715867    0.25099271488681
O          -0.15125781127524    1.09423177601387    2.02687935937268
O           1.98818665853936   -0.02310788952633    2.07644217174312
O           1.86971646151594    2.37000122563678    2.47842121692493
H           1.31583511494744    3.11499467452998    2.25867295430000
O          -0.56364886442345   -2.18702151898893   -0.19543269314821
H          -0.46103279697263   -3.06349758260270   -0.56861713704591
O          -0.37848631030380    0.17089954249202   -3.28893741434324
H          -0.54234802672235   -0.29270666567910   -4.11016855448513
O          -0.90269900192725    2.09278922168897   -0.94154887810532
H          -0.60705428706483    2.12305317068797   -1.85670207214707
H          -0.10143268582091    1.90863807013374   -0.41816149875279
O          -2.24608400651116   -0.21059767111217   -1.42161534719156
H          -1.84603464905293   -0.89361119031566   -0.86790086092912
H          -1.96803364986847    0.64881320426840   -1.04401359015822
H          -1.16889178015083    0.01811551316953   -2.71414663550758
O           1.23354509238811   -0.72253293437820   -1.28366350367861
H           0.80199937253498   -0.36008377523206   -2.08502813758199
H           1.43912249024838    0.05319683756094   -0.72708561624668
H           0.16662778906580   -1.62000886514828   -0.61913121025843
N          -0.13919888354531   -1.42192032000251    2.30386431537625
H          -0.37469955509944   -1.86978588399615    1.38036702451620
H           0.89323853123610   -1.20633685025567    2.32926015848936
H          -0.47917867142370   -0.40900132973574    2.27801627849869
H          -0.47214442563710   -1.94804142477226    3.10368685730495
