    26
        -50.46328767  Gyration_radius:  2.42781803697 Dipole_moment: 7.582
 S           1.36212850958821   -1.31996681174123    0.97575849782985
O           0.73762822891667   -1.58243484675462   -0.34989451754410
O           0.53422630774122   -0.31124679665422    1.66175298839825
O           1.58480767064098   -2.49822221953933    1.73622519874178
O           2.73133328492150   -0.63753058775554    0.66473143540616
H           2.53394750644627    0.18934797635640    0.17306206239495
O          -1.60302868683913    0.98927359894177   -1.60410476827834
H          -2.04571008324122    1.45300814559546   -2.31525009205457
O           2.23258142129297    1.67061369919570   -0.58433196374542
H           2.89079261609673    2.29629719951484   -0.27872790683329
O          -1.88892337465629   -0.82823686451998    2.41555422794681
H          -0.90925015848740   -0.71708840543310    2.32054231823150
H          -2.20215622455167   -0.02790275208231    2.84114094866280
O           0.73360589412366    0.14792000872434   -2.34802750191439
H          -0.70995139050990    0.69906865582609   -1.96697075550461
H           1.40524445020104    0.78133174892330   -2.06141172055086
H           0.82009379327074   -0.60206416468346   -1.71850198897592
O          -0.08046760476279    1.98480686464602    0.55809199759993
H           0.09803169806758    1.15866265771863    1.06593565626732
H           1.36758281946472    1.92734783584210   -0.15016757698407
H          -0.74122727199845    1.75349666077193   -0.11128386233884
N          -1.80326665900656   -1.31432001643574   -0.19241557447214
H          -2.01819743361137   -1.14155920867187    0.82412125289464
H          -1.96690594178886   -0.45474648924785   -0.75196408092637
H          -0.73376971751103   -1.51316119305329   -0.25110498385306
H          -2.32914964380914   -2.10269467548334   -0.55275929039224
