    26
        -50.44334449  Gyration_radius:  2.72021589283 Dipole_moment: 4.399
 S          -2.94709859800617    0.61834233802428    0.06089533107264
O          -2.41646554455311    1.25233492955956   -1.16028094709084
O          -2.93662492954382   -0.82751709414279   -0.06852278749987
O          -2.29461533325853    1.10232837261843    1.25270479629183
O          -4.46086032334883    1.06210316738957    0.14232735811655
H          -4.83654462077976    0.64410921682399   -0.62642355606799
O           0.97003326687381   -1.60976850883341    1.34056192980027
H           1.28756583892451   -2.16310407546989    2.05409160165372
O          -0.06628538250601    0.53762116474834   -1.31558529713796
H          -1.06407519053248    0.91368139345545   -1.36604428644450
O           2.69077571062008    1.90098839263999    0.06352982487759
H           1.94097630968115    1.80095891212753    0.66812559553261
H           2.43409539039189    2.56643671809813   -0.57693152048439
O          -0.66215978843247   -1.83354833327585   -0.83256085328452
H          -0.22937866020762   -0.51356278108367   -1.24159194792638
H          -0.18506481733589   -1.98031143654892    0.00541034293394
H          -1.59244335609385   -1.60987282536369   -0.57471005086524
O           0.29311626469250    1.01100307411908    1.15668281379138
H           0.22135972539170    0.80352458323059   -0.36038359350932
H          -0.67166158198872    1.15157750147851    1.33089728271156
H           0.48887823734623    0.10527557861201    1.46665357179368
N           2.89366685527644   -0.98180331170563   -0.35473778975015
H           2.60213398687138   -1.18216787745245   -1.30360690871497
H           3.81816985820237   -1.37247014021795   -0.22531619391106
H           2.97148132367694    0.03188256191791   -0.26430826447627
H           1.75102535878458   -1.42804150052148    0.72912356856937
