    26
        -50.45582957  Gyration_radius:  2.45850774088 Dipole_moment: 2.239
 S          -0.33716850021832    1.89185874965541   -0.51449347229277
O           0.18134257027954    1.82728564316799    0.82965127911314
O           0.52726066284825    1.27779717702187   -1.50643941813482
O          -1.70599354212254    1.38199349003627   -0.62019576129994
O          -0.42561941610785    3.42705302298491   -0.89181128188088
H          -0.80690440591014    3.38938385692135   -1.76270490065554
O          -2.46458762539878   -0.37523193301344    0.97265021778362
H          -2.23166766960967    0.42716462627762    0.35226868659083
O           1.62922701044784   -1.68832767534319    0.76131994098863
H           2.27380287953237   -2.33330476706481    1.05376618101001
O           0.06021314781944   -1.36757855770132   -1.48608429944435
H           0.18910230022297   -0.40643974784972   -1.60303183865623
H           0.65408713672982   -1.62474222332455   -0.76132052504372
O          -2.31421845206685   -2.16567921208592   -0.80467878016522
H          -2.90044208113118   -1.97551847060596   -1.53914655044538
H          -1.39321522733687   -1.93122153645210   -1.11831231146169
H          -2.48032332540081   -1.18095881825215    0.32191676960066
O          -0.27614299315147   -0.38740242837107    2.17098951665370
H          -1.59600410059532   -0.47171440527174    1.57401593247053
H           0.35962179165303   -0.99811018175062    1.74480953916872
H          -0.03452365950463    0.50538670611198    1.83444263458854
N           2.71811316520984    0.63410398188499    0.18203773950864
H           3.65485701698222    0.81632830789011   -0.15629507952234
H           2.12854530827124   -0.83589939701160    0.56010605953861
H           2.53188029801139    1.26113254666390    0.95622417423200
H           2.05875770053824    0.90264125547800   -0.54968446224909
