    26
        -50.47066088  Gyration_radius:  2.50112183854 Dipole_moment: 4.634
 S           0.06014350981751    0.20255346879658   -1.06823301627729
O           0.13212213466355    0.39811054120592   -2.59573062881954
O          -1.32943736266443    0.31842462912227   -0.64036685601248
O           0.58758437181363   -1.13360810368114   -0.74683647080512
O           0.90101641055025    1.23414810982298   -0.48001289253992
O          -1.84612147429858   -2.23175561618272   -1.12087394099377
H          -0.89231089993384   -2.35868847582133   -1.01803779621072
H          -1.97624707017776   -1.32021501887476   -0.79867405514576
O           2.76776156202439    0.86254942169258    1.33605895568374
H           2.14652815045479    1.06839559228358    0.59722158562293
H           3.61625072431486    0.69056593524801    0.92562757546710
O          -1.22568852374335    0.59940395465583    2.00169440578010
H          -1.46991577835254    0.52474328184753    1.05483401999472
H          -0.83891509932073    1.49865075276896    2.07349851938360
O           0.27112698816895    2.78859262362528    1.63293501803840
H           0.41689241477764    2.41475024246126    0.74381276402472
H           1.13502312454714    2.79574307099889    2.05220536442852
O          -1.71215042066845   -1.16490164879062   -3.53162867860777
H          -0.53561255363792   -0.21281478988706   -3.01934409514682
H          -1.86012495840818   -1.73400146649212   -2.73495354398529
H          -2.50914993645380   -0.64159845712231   -3.64155029494656
N           0.84367969826663   -0.94726014915669    1.82655406509604
H           1.68997225565066   -0.34833577851277    1.91872853195222
H           0.89562322952810   -1.78220330243478    2.39950643621982
H          -0.03495287327208   -0.34778352338827    2.04637049179269
H           0.76690239635962   -1.17346528422660    0.78719452600032
