    26
        -50.44683688  Gyration_radius:  2.46784510267 Dipole_moment: 3.588
 S           1.74087542736435   -0.93720113937532   -0.28833097407361
O           0.97589171519962   -1.27095648713402   -1.49835406603415
O           2.97903429665377   -0.27343650745591   -0.57324375711200
O           0.88465301438809   -0.28578030008919    0.68062241290065
O           2.11425823540017   -2.34281892007802    0.37573073341185
H           2.95169338768801   -2.56758732792106   -0.01891503425097
O          -2.10914352191874   -1.90918730261958    1.04425057176935
H          -1.80184081374336   -2.81289124286888    1.13471194032273
O          -1.38552415992878    1.59423396606239   -1.27656841269986
H          -1.73629690375109    1.93986676371427   -2.09900352422006
O          -0.66744306051300    1.85915702200589    1.50548045392937
H          -1.24738428499833    1.98626818899823    0.74866078524863
H           0.02506641981659    1.25682693852173    1.19448792766652
O          -1.44568013770893   -0.96364918899258   -1.20477839165250
H          -0.40165985670585   -1.15415234526747   -1.34225369786251
H          -1.72696285591493   -1.33353120969752   -0.27459002201311
H          -1.51130140969235    0.05414372187015   -1.18321750986502
O          -0.72004386736126   -0.60967041365907    2.80678960657892
H          -0.96844980698326    0.32734341712470    2.77000192955839
H          -1.65847983796466   -1.39094108936969    1.77734870141907
H           0.07186170208103   -0.65503761692651    2.24328506252087
N           1.22283758601756    1.91152047436262   -1.32873952634658
H          -0.38010546374788    1.72865056406465   -1.30523771972812
H           1.68459227271156    1.03201368597757   -1.10350357764290
H           1.63480668862857    2.25219193074802   -2.18977918048858
H           1.47474520498361    2.56462440800722   -0.59485470133419
