    26
        -50.44683689  Gyration_radius:  2.46796959526 Dipole_moment: 3.591
 S           0.94200261093649   -1.40501496994780    1.06353950758745
O           2.03728205143618   -0.73282424275149    0.34979403601759
O           1.09825121129764   -1.37286617460133    2.48810548221709
O          -0.33671949361835   -0.95028317197455    0.55906266872250
O           1.03206231927161   -2.93993505721306    0.62499635699074
H           1.61204563434157   -3.32973745950819    1.27249418327517
O          -0.41608837643847   -0.89337636539052   -2.86637185021741
H          -0.04959917836992   -1.75815475019969   -3.05904652210469
O           0.20647924291323    2.44252801569854   -0.28418182093577
H           0.72500698004913    3.24690153987838   -0.33892706795374
O          -2.25564630555129    1.02094618546726    0.20809521690678
H          -1.73389049398314    1.74119384116729   -0.15836186165017
H          -1.60651126762552    0.38053486638603    0.53604330003455
O           1.25999772287735    0.52589905797686   -1.61394718787323
H           0.55643424400682   -0.04198513766077   -2.12745599821006
H           0.78234938193533    1.30851497325480   -1.16678146272447
H           1.63024167270219   -0.05511896607585   -0.79514390339357
O          -2.32563974859882   -1.39655517837848   -1.18579514230720
H          -2.74561360104856   -0.55995701393919   -0.93133059569813
H          -1.22079712647476   -1.05843968169487   -2.28811512273862
H          -1.68240857863286   -1.55179892283968   -0.47240696258837
N           0.52876910553047    1.45153620945939    2.12854041394781
H           0.33268014856813    2.07351556544536    0.65266243427871
H           0.78833500418085    0.46842283979838    2.06829041411263
H           1.20727613148567    1.90216355527638    2.73175839518130
H          -0.36629929117445    1.48389043236513    2.60448305912433
