    26
        -50.44582833  Gyration_radius:  2.56341529697 Dipole_moment: 2.750
 S          -2.56611798904602    0.08832301591082   -0.65475641695078
O          -2.58893879209411    1.19009871140903    0.38871316773636
O          -1.93682053431524    0.55079919840064   -1.85865121472465
O          -2.07072888443897   -1.13751869937724   -0.11269264775094
O          -4.09741321486012   -0.09826474665610   -0.96310156071538
H          -4.32782793024826    0.67045496027300   -1.47768407125166
O           0.03962905849038   -1.32767620435014    1.82488236584732
H          -0.86025662804846   -1.66405986373345    1.85086375774963
O           1.65621643327142    1.75217605580115   -0.00092831935804
H           2.23278768359754    2.50298527134044    0.14417016584815
O           0.75314323346314    0.32878886156461   -2.23126372686162
H          -0.20761266618859    0.46228813053957   -2.28383169562792
H           1.07707934984127    0.98797715116740   -1.60001060548022
O          -0.43875100584577    1.23571108411963    1.57641116971252
H          -0.23263699815264    0.27716760931332    1.76504512382092
H           0.26672302859397    1.53880991832707    0.96057007043301
H          -1.64721277639210    1.24090448587129    0.93593429299389
O           0.54409801645176   -1.87725607493227   -0.74839523468575
H           0.73624980647832   -1.13274545174438   -1.36657129844802
H           0.34720373402871   -1.54995174675166    0.91394051000502
H          -0.41605106750776   -1.97321468962489   -0.78869876318954
N           2.83087600339854   -0.49099555577350    0.78890656848911
H           3.83520463197423   -0.60290561295368    0.84408733905355
H           2.43384800211555   -0.73738686443122    1.68855769766342
H           2.16019991225916    0.93091304709668    0.28681800417797
H           2.47710960317840   -1.16542198081077    0.11768529151618
