    26
        -50.45476237  Gyration_radius:  2.60410041578 Dipole_moment: 5.751
 S          -1.22186048213390    2.14352949885904    0.91003822091354
O           0.07396489930517    2.51281282573678    1.44082922105004
O          -1.21557641937368    1.75113900196148   -0.47885868824290
O          -1.87405118331689    1.11171835782375    1.73121473734937
O          -2.12792919814732    3.44270656744927    1.03315947279250
H          -1.82037030873080    3.82017125893229    1.85143262881859
O           1.18403606312354   -1.40101747494096    1.41176243416025
H           1.39435989595109   -1.41881667521350    2.34581574280610
O          -0.59975927318451   -1.70787178483832   -2.01889189745042
H          -0.80672970477608   -2.13919355900425   -2.84790139453322
O           0.75325165515054    0.80252315564372   -1.96909247102274
H           0.28810224895378   -0.01006478609410   -2.21018260175395
H           0.05459002217889    1.34974675233764   -1.55965092329346
O           1.88176547054936    0.85005236240735    0.46852451042714
H           1.62247789732022    0.86618447029065   -0.47882910319031
H           1.31387344015399    1.53439187332838    0.88706114776024
H           1.49880827645106   -0.48676595215548    1.07463966784748
O           1.86871719543385   -2.15601858913277   -1.16091032598255
H           2.31109601820611   -1.34468629445325   -1.42918251130583
H           0.30122432040332   -2.01334432116147   -1.74924084472568
H           1.77532570143860   -2.09782042967026   -0.19667822826607
N          -1.34373336812641   -1.09737754594618    0.57888328179024
H          -1.28584437234283   -1.03404519216403   -0.44752567711072
H          -0.38297543317359   -1.31519387236552    0.95034915176552
H          -1.63782125052848   -0.14151692141468    1.02150630498543
H          -2.00494209073772   -1.82124271627944    0.84172813440983
