    26
        -50.45476203  Gyration_radius:  2.60407109077 Dipole_moment: 5.748
 S           2.46354126562246   -0.66078620857141   -0.64088581558023
O           2.77196428555225   -0.39526413366892    0.74896936106058
O           1.32128744627474   -1.51733964956877   -0.85239607665888
O           2.32277859500311    0.58158131512119   -1.41604683850407
O           3.73478127786361   -1.40801410587117   -1.23235238362303
H           4.44785405141020   -0.98015399323423   -0.76852650886593
O          -2.38820728558342   -0.58601416235461   -1.14034635323118
H          -3.17242109833295   -0.98910163885218   -1.51285649655250
O          -0.48214186646030    2.03939449740787    0.98347384058731
H           0.02275035623536    2.79980008643100    1.27295735975428
O          -0.75203914130682   -2.00279149047426    0.71662348714769
H           0.07195735103731   -2.05352251997652    0.19341639768225
H          -1.41179566235764   -1.72298029367305    0.06762175331841
O          -2.77227373602057    0.50836640144147    1.24402135911494
H          -2.66263125976853   -0.13430384217110   -0.30456493445457
H          -2.12242940196694    1.22906794834691    1.25677163342785
H          -2.41734144510192   -0.17296322620931    1.82349349465733
O           0.50272974413391   -0.04065927087686    2.05455886165315
H          -0.06140004552979    1.23264977408480    1.45327955211946
H           0.00006516671745   -0.81381840997813    1.71583687989127
H           1.40748466345651   -0.16129033560605    1.69027138625993
N          -0.17997622005091    1.05034709618775   -1.48741444743979
H           0.88381703353007    0.79935852647301   -1.52501925504458
H          -0.33996971325671    1.53242506720347   -0.56516950778339
H          -0.42157752525314    1.66167975091831   -2.26079744564872
H          -0.76680683585462    0.20433283746703   -1.51491930328786
