    26
        -50.46798286  Gyration_radius:  2.54914748865 Dipole_moment: 6.426
 S           0.34739694366085   -0.93649240859164   -0.48071960319514
O           0.88586024806151   -2.21393962932252   -0.85887874032040
O          -1.22224658322242   -1.03434509937505   -0.44172390228893
O           0.75068700535090   -0.51432889697224    0.86721736388247
O           0.62409107115039    0.12121964948991   -1.45053991206261
O           0.35782063032899   -4.40423060775252    0.50579881207661
H           0.69502210967491   -3.64876530437181   -0.02590155059209
H          -0.00567820376321   -5.02681119599084   -0.12591819814639
O           2.21015571451814    1.64783909895253   -0.03560282204430
H           1.78554991708782    1.08270620714891   -0.72114422773304
H           2.20612870752633    1.07223399319146    0.73891880531308
O          -1.16142215814031    1.14995603704071    1.43533002604919
H          -0.40721479203506    0.51421714124141    1.33446199253538
H          -1.88636138915308    0.73964605737464    0.95463427331407
O          -0.88634405639302    2.09562574598860   -2.23145428391285
H          -0.62179534083763    2.27181725493737   -3.13570067820783
H          -0.43183887337547    1.25284110646916   -1.98324246719634
O          -1.01674186033887   -2.44566872026321    1.68898620627702
H          -0.62749209921434   -3.30414240367513    1.41204707668195
H          -0.25732374838190   -1.88140276654481    1.89059674392578
H          -1.34816737363072   -1.64982837529899    0.33408996320986
N           0.00038772106759    3.06689803998991    0.07226839090243
H          -0.56042235823043    2.42700505487370    0.71240326478933
H          -0.03441356924871    4.03728643253495    0.36162229526137
H           0.98863515965896    2.66574886084281    0.07595385177741
H          -0.38427281212165    2.91491474807039   -0.89350267029937
