    26
        -50.45472198  Gyration_radius:  2.51428765295 Dipole_moment: 7.533
 S           1.83886990266591    1.02604350186948   -0.19366946865213
O           1.72960881907115   -0.43208019935852   -0.31789171114670
O           1.31477339491557    1.74709033004322   -1.31483068979870
O           1.34020860605252    1.45564360596988    1.11139699813065
O           3.40260750242613    1.32784456157211   -0.15905826326674
H           3.56433360055905    1.72287471515969   -1.01000782514405
O          -1.46628050870042   -1.15836443403948    1.61043061604666
H          -2.26467355240454   -1.31701572662112    2.11481597563253
O          -1.78763399209765   -0.76554573104386   -2.87785715273066
H          -2.65907830089865   -1.16129229837725   -2.91703482880580
O          -1.41133416494946    1.64743649198117   -1.64702651313163
H          -0.45356682715563    1.79659682328646   -1.69890551058682
H          -1.58222172133931    0.84809543337089   -2.18151351971848
O          -0.44283281573697   -2.00633729644092   -0.89535657655390
H          -0.91411863425691   -1.81052004885037   -0.07309356593269
H          -1.26691088321800   -1.29937928666649   -2.23993662829533
H           0.37705367355798   -1.48736738065454   -0.86531231031470
O          -1.37498781348304    1.29890560675950    0.94467879874169
H          -1.55088204759479    1.45930074981475   -0.02121136248754
H          -1.50521677299571   -0.18196487510091    1.32032947571222
H          -0.44690588632537    1.55905202971354    1.06380174640387
N           1.11913983535800   -0.88930171771427    2.10168376783567
H           1.20616901246432    0.16128922436325    2.10822136126097
H           1.48364898207276   -1.04171673066822    1.11227131579228
H           1.65353568572641   -1.35985483774075    2.82285907890078
H           0.09669491627066   -1.13943251039900    2.10221679218497
