    26
        -50.46584234  Gyration_radius:  2.39852525671 Dipole_moment: 4.264
 S           0.25038656773029   -0.95736224353229   -1.59506236984473
O           1.00297741369149   -1.18479467339462   -0.22271564315886
O          -0.31659482879834    0.40805661990016   -1.50030538267956
O           1.31973224657345   -0.99581900831390   -2.56803023464396
O          -0.78942131635037   -1.94935096009411   -1.70663202938609
H          -1.99438101595303   -1.65507581295760   -0.66269438899925
O          -2.64931385295405   -1.50559339958216    0.06809529102087
H          -3.28847410195824   -2.21557174507450   -0.01102914922806
O          -0.18171528926094    1.26236980330123    2.09431570820827
H          -0.40121619539389    1.88921411735222    2.78439424497196
O           2.35174692444929    0.84544141267104    1.07897050337410
H           1.50409511029974    1.11636137068566    1.48164883030408
H           2.26594709448118   -0.11084385234467    0.96920364398826
O          -0.56529020977327   -1.46346781032756    1.79260937333844
H          -0.47090435214119   -0.55127539144045    2.11592960737300
H          -1.42989161513585   -1.51757396752953    1.34034276390410
H           0.37458541794088   -1.39324431865859    0.53715415252456
O          -2.06801441956789    1.21524626342102    0.29087270815087
H          -0.90500800396769    1.33319937946362    1.40783213342080
H          -1.48583486961980    1.02829065111662   -0.47600683919778
H          -2.59747363541532    0.40964939580123    0.36912161421297
N           2.06196389328135    1.24078211129698   -1.52411666248080
H           0.99279401393189    1.24112166824043   -1.52921956339061
H           2.34785978626944    1.18149234401167   -0.50402321164919
H           2.18271549393697    0.31297291999355   -2.01085982583707
H           2.48872973366056    2.01577511600272   -2.01979527426500
