    26
        -50.44499763  Gyration_radius:  2.55408436127 Dipole_moment: 5.299
 S          -0.89279082086735    1.40209321541173    1.61573400127949
O          -0.97082021358337    1.65212614994862    0.16040928478431
O          -1.79707327743324    0.34457820224971    2.00378540548161
O           0.46818248769746    1.24145818041297    2.05670068575973
O          -1.43517941342344    2.73281805728135    2.28770231989296
H          -2.37977075076574    2.65867095449936    2.18983013409342
O           0.04211708563649   -2.14007949015890   -0.38699191356887
H          -0.33964576611878   -3.01661223119177   -0.45139271517817
O           0.05574637405742    0.25458913833051   -3.29152203502177
H           0.00713663774455   -0.29591768790092   -4.07412897676414
O           1.81681216551420    1.59878002825237   -0.21468424554498
H           1.47035234099794    1.46568053524884    0.68894699464689
H           1.13154158627508    2.10997527393363   -0.65502341799756
O          -1.43554572044601   -0.25677509104358   -1.30715169040517
H          -0.92876677084015    0.00517332169779   -2.17063044331460
H          -0.89414600672466   -1.02749098308844   -0.90696038816986
H          -1.29718181739670    0.58531535931984   -0.64031477055357
O           1.96540136972881   -0.57349629977267   -1.75720104975073
H           2.07856705902689    0.20879763825771   -1.16942224448153
H           1.51422056172629   -1.24158303052707   -1.22363460045364
H           0.89261810514845   -0.01172883053796   -2.80073492091524
N           0.21192793398166   -1.56736981974982    2.10573045271850
H           0.15668596983418   -1.94509784405216    0.62447362150519
H           0.26181962183136   -2.26122337871773    2.84133983551863
H           0.95147787421358   -0.88914176782452    2.25694388216692
H          -0.65368660583987   -1.03353958024607    2.21819680426748
