    26
        -50.44986064  Gyration_radius:  2.52936520746 Dipole_moment: 6.789
 S          -1.30508178667007    2.33059567780115    0.36875707384422
O          -1.46635196091249    1.33110402472831   -0.70935326942571
O          -1.67747323281905    1.74975499447540    1.64926564497822
O          -0.01099574722639    2.94805462757740    0.34093685124772
O          -2.39388621909454    3.44403553179045    0.08571984714922
H          -3.09761677194509    3.17337962325594    0.66644606321477
O           0.16102733433360   -2.26980536563604   -1.44085260959330
H           0.04397627054747   -3.18502862529433   -1.69767421261376
O          -0.14483205298796   -0.30743434039149    1.88036699207831
H          -0.71327267655836    0.48644366701499    2.05886685976958
O           0.66658938555444    0.44302563888858   -2.14722314531228
H           0.44042542393023   -0.49016889165289   -2.23887080963382
H          -0.13792187918974    0.90001173600883   -1.84454012697954
O          -1.58106156441022   -1.04761750330131    0.03297395495789
H          -0.94340197221613   -0.84526213718494    0.94091348738972
H          -1.66237048594831   -0.07582829333298   -0.32629070968725
H          -0.98654442786018   -1.55023008715225   -0.60756286399004
O           1.60153716471447    0.84560221297571    0.32127225836159
H           0.62315128368925    0.06940150344380    1.35765558535850
H           1.43931586108937    0.67081514146299   -0.63509387971074
H           1.23436190629426    1.74459998011057    0.43406730686574
N           2.06247656099789   -2.09507078695037    0.37602183606426
H           2.30052862931677   -1.10699098406564    0.37577512990329
H           2.91978832128947   -2.61820441413149    0.25016509776542
H           1.69466468860611   -2.30902149021840    1.29576737101633
H           0.93296792746512   -2.23616142020315   -0.78750971301851
