    26
        -50.46798302  Gyration_radius:  2.54848495252 Dipole_moment: 6.423
 S          -0.34066072915349   -0.96981524497894   -0.41752335895488
O          -1.22635475024281    0.18369907737046   -0.21127378547281
O           0.35015538586277   -1.31123244519236    0.82433128680758
O          -1.00152915911252   -2.08889649656652   -1.03045002067029
O           0.79939251949562   -0.46200549589246   -1.37531309024342
O          -2.11685820512127   -1.91374298785020   -3.41055369938058
H          -1.81725638172685   -2.07475617114105   -2.48783293212285
H          -1.72099846613171   -2.60870538002588   -3.93886584618648
O           2.63125466111249   -0.44094300768168    1.73352845609073
H           2.98708674104125   -1.16355331783063    2.25307786796714
H           1.84760493204565   -0.81667381136046    1.26089756128439
O          -1.07246715484264    0.05650836764932    2.54303775210575
H          -0.58208565031163   -0.63290099557842    2.03920170014308
H          -1.69557679905526    0.38980825508133    1.88584711061585
O           0.51128953131390    2.11226052509302   -0.11213170942045
H           1.17607725714504    1.76800820190814   -0.71586787540644
H          -0.23355931552645    1.46001681682421   -0.16701738988337
O          -1.01248397322066    0.46928714654809   -2.93255018997602
H           0.25663416987488   -0.10678722432701   -2.13386247150995
H          -1.46451372429425   -0.31018399740183   -3.32381806318853
H          -1.49982895229269    0.65724006276947   -2.11838175418289
N           1.05859635234830    1.58854845785593    2.39956788832742
H           1.81947393117335    0.86907974610601    2.31403942535434
H           0.16178160105288    1.06121331000367    2.63435025886288
H           1.27819268068219    2.31521423201355    3.07064733446943
H           0.90663350781764    1.96931238662151    1.41691554458587
