    26
        -50.45276041  Gyration_radius:  2.54809726249 Dipole_moment: 4.933
 S          -1.28798390571287    2.33552066132129   -0.43846346063817
O          -0.11308537534241    3.00126583121337    0.07845411266924
O          -1.14239300604651    2.00390764696770   -1.85934710471734
O          -1.69006062644599    1.17401474889809    0.33704242063745
O          -2.48393993848991    3.36425982571442   -0.34381481981226
H          -2.11365836352364    4.15711665107421   -0.71964284878425
O           0.28498095947008   -0.01558023122543   -1.78262353240550
H          -0.28686897621131    0.84116627902212   -1.98196726277872
O          -0.06738105233432   -2.52343747030402    1.18702951745724
H          -0.08025833433601   -3.42761864001840    1.50134260790280
O          -0.05334048634042    0.07375744424474    2.19088344302846
H          -0.78530334042093    0.52947955534683    1.73754642131580
H          -0.18879217032939   -0.87560627503463    2.05294614466536
O           1.46359828944448    0.91378724311407    0.23045707946136
H           0.85917178052290    0.30176941226733   -0.95122905158118
H           1.09003969057750    1.82274142185842    0.17927875002384
H           1.03597870244635    0.55489901372898    1.05674097791745
O          -1.57228019404878   -1.27811095926605   -0.67532557472636
H          -1.17736545549837   -1.81318673134244    0.04173636045055
H          -1.87153311976639   -0.43836139852047   -0.26596141450517
H          -0.45156187071774   -0.66992892908129   -1.40628057840463
N           2.23062527649191   -2.00304807213009   -0.09342403326408
H           0.81064512839737   -2.37768365023526    0.73424349877534
H           2.43011029692152   -1.03155870603939    0.12259600738210
H           3.04310774181214   -2.54837795680579    0.16564987250100
H           2.11754834949568   -2.07118672476116   -1.09786754256447
