    26
        -50.46862052  Gyration_radius:  2.5070596943 Dipole_moment: 3.960
 S           0.72426946457895   -0.82973886664456   -0.21713634395338
O           1.81453466206573   -0.84728446987730    0.73364196008143
O           0.91972214377111    0.17711404408258   -1.25611290426776
O           0.64559103339506   -2.21989308145967   -0.87752526856257
O          -0.56353426258765   -0.59916121361782    0.47184795894856
O           2.00565469422158    1.99440819200663    0.27275794739969
H           1.63955541441347    1.41653865371732   -0.43815904879279
H           2.77785456482551    1.51848494025614    0.59138472714613
O          -2.70895129015946    0.64114519968230   -0.51173678081795
H          -3.40849324300585   -0.00559594236431   -0.62137550125446
H          -1.94925438016823    0.14834446303598   -0.13881453701285
O          -1.22909234593446    0.50319038286097   -2.80479081709351
H          -0.35815117334627    0.53318115952585   -2.36233295081928
H          -1.86178090458256    0.80636434336721   -2.12756996958147
O           1.63799495583556   -0.34465259962895    3.31171202424461
H           1.36662310807437   -1.14809037289851    3.75804862197119
H           1.83010520666793   -0.60771314877450    2.38040639476092
O          -1.34503187809512   -2.07472386844768   -2.50582047027400
H          -1.37915293076165   -1.09101971290834   -2.70323484745502
H          -1.08854285432108   -2.50060167467839   -3.32610623745319
H          -0.15598668999177   -2.20300325018563   -1.48228238959876
N           0.11346169644154    1.37915446869073    1.99562541991402
H          -0.31376234771857    0.60024935184016    1.40272960422845
H           0.85255910906967    1.81781956251548    1.36772239431393
H          -0.57889553939965    2.04779359573369    2.31507081597230
H           0.61270377670858    0.88768984415905    2.77205021795379
