    26
        -50.46126422  Gyration_radius:  2.44979756317 Dipole_moment: 8.824
 S           0.47238613643091    1.00758525845783   -1.84113602262266
O          -0.93029515339861    0.96942419677626   -1.39221998261393
O           1.33853498873943    0.52089184581388   -0.76925578887973
O           0.66792494827885    0.32775363298079   -3.08914599363450
O           0.81696340937113    2.52901951629932   -2.06048609262518
H           0.67823533952424    2.95063364010958   -1.20673804766959
O          -0.77080082551240   -2.41721964917595    0.12583442477369
H          -1.04357667797084   -3.33590707013909    0.13367586272106
O           0.64039896074403    0.39496097454436    2.77370455391803
H           0.66836792906092    0.04435257292682    3.66444367352502
O           0.55514538471847    2.48986641338424    0.76173980055869
H           0.95520565781066    1.72521882782135    0.30198937459787
H           0.81001607067661    2.39074538936415    1.68323338564792
O          -0.93641187295555   -1.64227444106901   -2.37429512246625
H          -1.69229132630245   -1.04735823449453   -2.37865692409326
H          -0.21420276794143   -1.08192916595171   -2.73065455635990
H          -0.74851991628994   -2.14856938367489   -0.83409499540931
O           1.65181981424466   -1.34130978680158    1.09602673670001
H           1.15784972911661   -0.24273195756611    2.20649223338120
H           0.92178387027766   -1.91446281849974    0.81933171926643
H           1.75601174369829   -0.71562633552703    0.35396170373362
N          -1.36710465520470    0.10880977546474    0.97557870949390
H          -2.29952585887709    0.37110574783402    1.27573078675066
H          -0.65043646594962    0.39785256651869    1.67997261157703
H          -1.28663463724186   -0.91207223848684    0.81510478914409
H          -1.15084380504783    0.57124072309030    0.00986318058569
