    26
        -50.46126419  Gyration_radius:  2.44980773553 Dipole_moment: 8.825
 S           1.64870561109836   -0.91436952566839   -1.03641704155842
O           0.31906734004118   -1.54297083981320   -1.12263339218614
O           1.52377556642351    0.40251304335852   -0.41502815174847
O           2.61534343227341   -1.75999201376037   -0.39727388432638
O           2.11694971896206   -0.68294527653028   -2.52268332879058
H           1.45045821462220   -0.11199794463317   -2.91723465684791
O          -1.41554132889116    2.49286689910369   -0.19991794880063
H          -2.02016426857991    3.12370108953964    0.19196201437858
O          -0.75378366464972   -0.68170157064644    2.32826948432781
H          -0.99844339444699   -0.95655438334524    3.21317317181232
O          -0.00773016767843    1.18901234767054   -2.38249024171986
H          -0.45851125516552    2.02122423985138   -2.21478996893237
H           0.56454132139202    1.04644985904693   -1.60259863774650
O           0.39252684193932    1.77837863226744    1.55267075948521
H           1.00386945666746    1.37404252727380    0.90784201897064
H          -0.67867868939594    2.36489400482187    0.46110007527374
H           0.02553891812613    1.02256756195807    2.03443442846767
O           0.87158696211950   -2.53222111358318    1.42724928033490
H           1.66571273722801   -2.24341885212178    0.92877787908758
H          -0.06847927102957   -1.33705404110969    2.01994598225722
H           0.35108021858003   -2.98652799762447    0.75796205741253
N          -1.65793749829935   -0.20633859795243   -0.20442842065580
H          -0.81901189119756   -0.71402994471288   -0.68566797081160
H          -1.53457891544485   -0.37443609390465    0.81094030771171
H          -1.60611968608003    0.82217722099804   -0.38554638251639
H          -2.53017632861461   -0.59326922048281   -0.54761744287946
