    26
        -50.46862050  Gyration_radius:  2.5069938224 Dipole_moment: 3.958
 S          -0.01630903848442    0.60398120986526   -0.94606489117500
O           0.93368039593866    1.69408098406934   -0.89833319367087
O          -0.35565674135344    0.33223958883908   -2.42443288530479
O           0.58261644938910   -0.63271514538833   -0.40005825833496
O          -1.24786613675160    0.91898668312659   -0.22810775572949
O          -2.86766902279946   -1.18574387131799    0.03139828583526
H          -2.42757361415626   -0.31313515656620    0.04213331877051
H          -2.28498248874047   -1.76368845815471    0.55803619564205
O          -0.13806328073243    2.25732771107960    1.72033741554454
H          -0.71069815261123    1.80829663454193    1.05414206539566
H           0.29107592234237    2.96257149163198    1.22759514417771
O          -0.68736271626782   -2.60504693903202    0.86682577374805
H          -0.66450321575506   -3.38588835348714    0.31052429509957
H          -0.20189812146552   -1.91333612341554    0.37176945279673
O           3.33418965662802    1.61826148129334    0.17931978528725
H           2.48712051252431    1.76185299699817   -0.30586228560585
H           3.94168365031379    1.24751767950959   -0.46249090144139
O          -2.01092158173873   -1.64083165187925   -2.37838754001347
H          -2.71313343054107   -1.45357344748954   -3.00441022769925
H          -0.96338030528992   -0.46719849362399   -2.43493651484181
H          -2.42015085098274   -1.54598169657540   -1.46654589939466
N           1.64473774055627    0.32150842295158    1.75770362423610
H           1.23061922026122   -0.21338455306809    0.93122833703701
H           2.51883762892917    0.76035877127171    1.38743740392829
H           0.94854429173460    1.10467177722599    1.94472085232900
H           1.79706323904334   -0.27113152241277    2.56645842338052
