    26
        -50.45634901  Gyration_radius:  2.66524062675 Dipole_moment: 5.731
 S           2.28814584853309    1.44817359312232    0.08979151151345
O           2.19458495054479    0.18442119356316   -0.60398047661612
O           1.69996625483368    2.56719979994615   -0.61467954545611
O           1.79140739615197    1.33857598279752    1.46706866900659
O           3.84021432800871    1.78855314091681    0.21654437053151
H           3.82810347007443    2.73748414713723    0.29557804087705
O          -2.03948020132070    0.64777149836410    0.93640860868606
H          -2.39923433968100    1.45596972928197    1.30403518902266
O          -0.88604626001615   -1.36970863370911   -2.03588452721595
H          -1.03503258148562   -1.39536741132470   -2.98134932980944
O           0.98381008189729   -2.10765605032422   -0.17552009417670
H           0.32712535969297   -2.04127244046516   -0.88915984814136
H           1.62893076774939   -1.40064497593390   -0.39437912257252
O          -3.18546482197710   -1.29636230222316   -0.61375811837633
H          -1.76930518046996   -1.35440183006593   -1.60959500568810
H          -3.33738637525459   -2.04960581884854   -0.04107829858384
H          -2.92476218488597   -0.55225788303877   -0.03910780394697
O          -0.55289371467971    1.28277408051396   -1.06108597082803
H          -1.47467555226899    0.94025515678627    0.15169583183356
H           0.26771158398284    1.80718080493221   -0.93772490856018
H          -0.29806084803763    0.45585924842258   -1.49557427533210
N           0.19260981790168   -0.63698681851064    1.83207783368473
H           0.89852850503071    0.17625240281202    1.72862600329387
H          -0.74618844454957   -0.23695171105090    1.64863063563335
H           0.45190836042080   -1.34357465782986    1.06530246989209
H           0.25548378978238   -1.04568024522996    2.75711816132874
