    26
        -50.46564190  Gyration_radius:  2.42030980603 Dipole_moment: 2.441
 S          -0.10327068145853    1.13923663223303    0.61016275322529
O          -0.94690312975093    0.22500852704138    1.37087326734876
O          -0.75318527417731    1.60429274584828   -0.60334155309597
O           0.20026541896745    2.34601872884223    1.52691458106143
O           1.18556095602460    0.50138019223035    0.29313558998269
O          -2.26842020351013   -1.65037813235082    0.11888029649348
H          -1.83728761066415   -0.91513319522955    0.62094536100882
H          -3.11815931658878   -1.79580823916772    0.53719179537870
O           0.87285393939995   -1.52486189485717    2.24096778709455
H           0.14671678044930   -0.88198334423821    2.12057681152760
H           1.65705502065786   -1.05488748980248    1.94268901690389
O           0.09289237620578   -3.03025143082387    0.21384949024915
H           0.43406934532909   -2.65060824053253    1.06356471271417
H          -0.85202377521289   -2.79100405429443    0.18847794723026
O          -1.27007293850161   -0.45400807235614   -2.14284651330188
H          -1.17224117377639    0.42003488213749   -1.69566827409350
H          -1.86287872306993   -0.96521210952174   -1.56623240069352
O           0.96394956268957   -1.33352785102158   -1.39831816775147
H           1.16338245039268   -0.56264601605692   -0.73320921616923
H           0.66913406235469   -2.14949337250529   -0.77250847950953
H           0.07909703262629   -1.02357704401595   -1.86554570692675
N           1.43441997210315    3.41189045459443   -0.49189217185672
H           0.67375607484052    3.00576721010271   -1.02912883607218
H           0.73680754946452    2.93421115850756    0.92077299190057
H           2.25890557903772    2.84559270589637   -0.64483038987847
H           1.61557670615656    4.34994725932928   -0.82548070274162
