    26
        -50.45634773  Gyration_radius:  2.66555882149 Dipole_moment: 5.728
 S           1.08898250027027    2.24712213074101    1.05258547669130
O           1.63329043826642    0.93174045118694    1.29978160332753
O           1.41228160585815    2.79923467718097   -0.24562721690404
O          -0.35243855853893    2.28802826756977    1.32854867121658
O           1.76029602383357    3.22861526776251    2.11451901051739
H           1.71097348232906    4.06799197678077    1.66725793654034
O          -1.84143161959806   -0.06101383943897   -1.44005301296909
H          -2.33796030315684    0.58355840737262   -1.94574545349987
O           1.30062545817991   -2.07572832196697   -0.89062335156573
H           2.04218148118390   -2.39706678871077   -1.40404965091990
O           0.63911933027506   -1.46758608215342    1.69676810026030
H           0.92216703747471   -1.86410837332645    0.85555778233793
H           1.15758114030810   -0.63495249392690    1.74075393204188
O          -1.08513283315704   -2.62302266402794   -2.04061165345394
H          -1.65925165493738   -3.20382922172221   -1.53913512045211
H          -1.44806230704094   -1.72164621167151   -1.95264681966575
H           0.48749719531530   -2.32665582492146   -1.37850045376759
O           0.63574833526659    0.62190980527523   -1.50475675389773
H           1.13695405176278   -0.10205581147874   -1.10197865421722
H          -0.87863325032299    0.23741957730956   -1.50051452627844
H           0.95123667800399    1.45420633090724   -1.09129578060020
N          -1.48660266043975   -0.01456571621505    1.26350529905700
H          -1.03555041418483    0.96517578711021    1.34689711341238
H          -1.80460783832851   -0.10947388930939    0.28135422523595
H          -0.69678496723156   -0.71396435298794    1.46789518478225
H          -2.25247836138754   -0.10933307734842    1.92011412277560
