    26
        -50.46564183  Gyration_radius:  2.42028474923 Dipole_moment: 2.442
 S          -0.98120359241970    0.51056772903634   -0.67654774537928
O          -2.37138140323786    0.71208793988215   -1.32121312914306
O          -0.44515093533012    1.79820563068605   -0.26912962775983
O          -1.16931104607518   -0.36348769966231    0.49356472333537
O          -0.13956843360473   -0.14699409179062   -1.66929942530733
O           1.91564403583844    1.44122152653408    0.81467215451289
H           2.39799293791814    1.04770346263213    0.06782842575772
H           1.06671618807758    1.76207596318372    0.42764936164761
O          -0.32769477592147   -2.68966633741993   -0.87659192769676
H          -1.00410326175251   -2.56565596229721   -0.20435282101492
H          -0.30310318959865   -1.83703336076420   -1.35352398021169
O           2.45489602001764   -0.15708017405143   -1.35289545347907
H           1.48479996270903   -0.11865406311330   -1.54239423774049
H           2.89462719348149   -0.08886637741089   -2.20151644198189
O           1.99164903002378   -2.27327387836405    0.31887199967073
H           1.18747043797976   -2.62944668049236   -0.13841716659165
H           2.39240037462855   -1.65158965066547   -0.31642844095681
O           0.91949003185474   -0.62005723662821    1.85295216563315
H           1.40907635804294    0.26321038999543    1.57482468251717
H          -0.00295607387851   -0.53713094954973    1.38543780849698
H           1.42083726851919   -1.39186835121625    1.30739465535099
N          -3.05305758095626    1.97856594391212    0.83885652673415
H          -3.08240071246818    1.28318844440525    1.57311353952884
H          -2.86257936971773    1.20202274466868   -0.60007713839352
H          -3.68769350549594    2.73032199832577    1.07525094574973
H          -2.10539594862312    2.34163305013954    0.79197054670179
