    26
        -50.45476208  Gyration_radius:  2.6042082744 Dipole_moment: 5.801
 S           1.18515325222353    1.88559129875611    1.39853535741673
O           0.96148940969434    0.88661825604037    2.45555163408120
O           2.35663257812616    1.57460652214760    0.60611783871436
O          -0.02251621465819    2.09072192565684    0.63569921364374
O           1.51188424928174    3.24919080281252    2.14531779554150
H           2.43229860732261    3.13945231739835    2.36307407596760
O           0.86760246862207   -2.14321597075839   -0.11480370419895
H           1.63638848309369   -2.59609717493471    0.23275617276937
O          -2.61393340570361   -0.48404525163128   -0.53723211866212
H          -3.53274511811700   -0.46357001900810   -0.80468682295673
O          -0.68373684061567    1.21650160542055   -1.77174773800804
H          -1.48511198596567    0.76393144992347   -1.47555920059064
H          -0.42932432755637    1.75483659691614   -0.99671241784249
O          -1.07883395876596   -2.00104624189778   -2.07671363512388
H          -0.38782840407747   -2.30002628710338   -1.46439101414265
H          -0.66243969112847   -1.33758385174571   -2.63568445687640
H          -2.15745662742689   -1.14357038698496   -1.11556067583205
O           1.64181556819505   -0.06006559342757   -1.34183650980022
H           2.03065987210825    0.54895065159250   -0.67559576282773
H           1.23011329568722   -1.32526721373880   -0.61275804846812
H           0.83920728689166    0.40839234604818   -1.65964770134506
N          -0.74880688856500   -0.73816554840574    1.49480602619315
H          -1.44091811464481   -0.30066151541156    0.86990812683423
H          -0.14562037939849   -1.38129704955853    0.91968720296189
H          -0.07860802645250    0.00737592019613    1.93211977628048
H          -1.22536506817268   -1.25155760828520    2.22935659627341
