    26
        -50.46261899  Gyration_radius:  2.6075828702 Dipole_moment: 5.788
 S           1.79613541202361   -1.11283678123838   -0.32094836758772
O           1.53268651304846    0.25952751380118   -0.81112997916558
O           0.76156922636693   -1.48954998535176    0.63152938035147
O           1.94958644120492   -2.06095492176961   -1.38807490869870
O           3.16266342107595   -1.03096872181323    0.45832177325179
H           3.09048224354001   -0.25909160495015    1.03986467690738
O          -2.17600166840506    0.78371388153741    1.09260146710976
H          -2.80919716725001    0.24468056275302    1.56926870119075
O           2.40390167611114    1.48190326273644    1.29241372921398
H           2.99085938679217    2.21585260034307    1.10241544670064
O          -0.61125354639553   -2.71074225226507   -1.49106428932112
H           0.35455963713663   -2.60941869291487   -1.64084759582942
H          -0.66665320866513   -3.00008547657966   -0.57500148971872
O          -2.74198815503544    2.06884556211252   -1.41339245350878
H          -3.09008678841167    2.95680507988294   -1.49835856724881
H           2.02249114217834    1.19348091036576    0.42818585094475
H          -2.67902049721990    1.88054269073097   -0.46670024054163
O           0.05555541316480    0.37037986385444    2.35581446067328
H           0.31136002466397   -0.41203830394089    1.81536865284607
H           0.79748934547346    0.98127732460930    2.26566049168503
H          -1.33515258808779    0.74103652032561    1.63227466175605
N          -1.03882911827165   -0.09811067477393   -1.23410370768465
H          -0.02519005017137    0.17838362657025   -1.15122448589456
H          -1.03843975357782   -1.13457068565349   -1.43829252834350
H          -1.49638157275246    0.09928527003968   -0.31670148523845
H          -1.52114579855874    0.46265340157356   -1.93787921382723
