    26
        -50.45634946  Gyration_radius:  2.66547448948 Dipole_moment: 5.740
 S          -2.57935243179512    0.41087078606989   -0.71862736010381
O          -2.99101040508146   -0.90201764941428   -0.26979979032150
O          -2.30014685297658    1.31589686975864    0.40332384326653
O          -1.49479125961114    0.40719634396209   -1.67301680939930
O          -3.84545449188749    1.02715489335458   -1.46517147390604
H          -4.56765671312858    0.66433815781687   -0.96164683142016
O           1.79685598225891   -1.32581867539281   -1.34983344226969
H           1.99588523069466   -2.10858150435118   -1.86406727209464
O           0.72800188749666   -0.47245784438372    2.16375336482588
H           0.30630272252081   -0.71521773672360    2.98898715168021
O           0.98839700770679    1.26724047656148   -1.69484632567749
H           0.05551918059647    1.05419704950220   -1.91416461981255
H           1.42451345253398    0.39841148835833   -1.69958729349348
O          -0.52757743330980   -1.65768078895897    0.26151800460578
H          -0.02600156033174   -1.49519907879756   -0.55048862033431
H           0.21487758694365   -0.96668157631964    1.44716700500334
H          -1.46507027090527   -1.43958884929491    0.06813749492302
O           3.08391107559922   -1.28511731293180    1.02958648259190
H           2.31105041188657   -1.39519281985086   -0.51754995917773
H           3.70997089512899   -0.56981460452178    1.15097989162929
H           2.29771973656189   -1.06703808582367    1.56451147627209
N           0.20088592010216    1.79180877168407    0.73875685429249
H          -0.86287871832748    1.65323953772948    0.60091675293732
H           0.39411231627044    2.71965398870898    1.09719697664303
H           0.51236285977899    1.05119444708563    1.39429255141055
H           0.63957389127189    1.63920369619380   -0.23032805205399
