    26
        -50.45717741  Gyration_radius:  2.52445271555 Dipole_moment: 4.851
 S           2.07235882419684   -0.19585842691712   -0.10046538610402
O           1.77095534686446   -1.55031028967895   -0.53328694563952
O           1.40579826939511    0.76533583303260   -0.98118791122342
O           1.80000628206233    0.04659533895675    1.29546275316512
O           3.62923746265449    0.01470360495631   -0.30202465913558
H           3.77801098054709   -0.27341276636971   -1.19766329296150
O          -2.01192265368906    2.10087763422904   -0.13280773529295
H          -2.85727926125783    2.38050766606158    0.21995690777872
O          -1.47915877319366   -1.72937882966486    1.01692347169530
H          -2.07832879841146   -2.47244758096024    1.09934736971561
O          -0.41095008827343    2.21384608124439   -2.59158485711150
H          -0.90073114359645    2.64170369172172   -1.88228408697925
H           0.41956296111163    1.92915008539105   -2.19187115933914
O          -0.68446821105319    0.91719065404067    1.80718455389174
H           0.27041803124658    0.75576130486909    1.67389211010704
H          -1.46061060470978    1.82804514517208    0.64471902317262
H          -1.09250792718548    0.04202478970092    1.81136717191806
O           0.89474308407328   -2.47628126066563    1.73562223192548
H           1.25702115914878   -1.72162851260907    2.21729072352450
H          -0.58476576304473   -2.06302556522283    1.33269390034690
H           1.28734006004508   -2.36461026994440    0.84137963018048
N          -1.02167588110199   -0.18188283299799   -1.16735175482519
H          -1.57497405019525    0.68295879981879   -0.96431304546156
H          -0.00200523647764    0.13215801679475   -1.13033416730363
H          -1.19942280608083   -0.89139497981961   -0.42236175266891
H          -1.22665126307553   -0.53062735113990   -2.09830309337519
