    26
        -50.45248439  Gyration_radius:  2.40928201921 Dipole_moment: 11.097
 S          -1.86396122787075    1.22924399981651    0.04602877854245
O          -1.73032533025749    1.10780850962985   -1.40412222365153
O          -0.53209256160373    1.01939556452768    0.66909662703020
O          -2.52261499254757    2.40273718375061    0.50579423263968
O          -2.69499963348254   -0.02769154537527    0.54265253092602
H          -2.09283298850523   -0.77654094188159    0.40986621716701
O           2.11263891176902    0.05238027130048   -1.25788519054407
H           3.02161955706518    0.26728246923921   -1.47097638026060
O          -0.96855889113601   -2.12548598129316    0.08495342995642
H          -1.45660991685741   -2.93865007758933   -0.05038453048557
O           0.67686694719191    0.57212627186819    2.86651672080295
H           0.02751117756310    0.36985871633363    3.54227125254352
H           0.16138256518970    0.96045135424369    2.11061973925240
O           0.74719822375174    2.24022281125784   -1.20419746764435
H           1.61508608500639    0.93191965455291   -1.27050580809572
H           0.01888901371598    2.22963952459471   -1.83764788361500
H           0.30215666177814    1.95094372125441   -0.37307195107855
O          -0.42116999472835   -0.98466679039618   -2.11367953629715
H          -0.77322692501888   -1.74447841137508   -0.84160314718267
H          -0.97203915398312   -0.16714582735354   -1.94175939955773
H           0.49813044851848   -0.69158766076219   -2.07003589611827
N           1.38832412251172   -1.19209456476165    1.02008809559059
H           2.07933336256307   -1.88684782140809    1.28387075788796
H           0.48118970613666   -1.63909983738275    0.76273379587177
H           1.19000950928568   -0.51429842055471    1.81484416337861
H           1.70809533394793   -0.64542218223633    0.17653307293871
