    26
        -50.44806683  Gyration_radius:  2.62571236566 Dipole_moment: 6.897
 S           0.05139138492179    1.79546438041819    1.40052614891598
O          -1.29990960968636    1.66877071650361    1.95404679242920
O           0.90416131830310    0.73300078340042    1.94905490107674
O           0.09739828826499    1.87981981068700   -0.02791955475374
O           0.62461204582014    3.16138918593560    1.96240227940974
H           0.47407962493476    3.12022102072720    2.90245236184934
O          -1.14716917773363   -1.92309315101439   -0.08265127341257
H          -1.68511760160405   -2.60174608191962   -0.49162093071734
O           2.38072448752381   -0.50671132237794   -2.37328425044707
H           2.82620000063911   -1.30170950083837   -2.66919178236923
O           0.05812944638792    0.24009562560792   -3.50219444969746
H           0.91652993545129   -0.05479907309960   -3.12419847068965
H           0.16552192031986    1.17910695077471   -3.66454755080592
O          -1.52271164018334    0.23699376431039   -1.34757481010999
H          -1.02234174414208    0.92089800913387   -0.85722949720184
H          -1.04958959505940    0.17158046418202   -2.21108480766933
H          -1.32014422388178   -1.06564354635878   -0.62137743237848
O           1.59253890064936   -1.15782691929063    0.10782941817902
H           2.15317951105882   -0.65913428331524   -1.42863777730149
H           1.48684137470087   -0.39106844869329    0.69682707479374
H           0.70775464409778   -1.52285778844557   -0.03126052085269
N          -1.10516467103964   -0.82985127075990    2.31786300101782
H          -1.24408516517625   -1.38122407061915    1.42774699787096
H          -1.43693639502630   -1.31860152765350    3.14185963722568
H          -0.09502857700387   -0.54975741242003    2.37104985871959
H          -1.51086447256686    0.15668368512085    2.20111462689835
