    26
        -50.45450928  Gyration_radius:  2.45167333358 Dipole_moment: 5.291
 S           0.21587327351132    1.64764359405605    1.26374835164911
O           1.12715556284094    0.49699258774891    1.72302316115085
O          -0.64690541808993    1.17870452163363    0.19466465531988
O          -0.44623437901609    2.16937988815117    2.40399868718635
O           1.18598811310636    2.68517585858512    0.65781225945964
H           1.11882746558979    2.63958351563020   -0.34440004568346
O          -0.67798803661660   -2.49329970456616    0.39405285291155
H          -0.69743788980578   -3.37732777776019    0.76271255275927
O           1.10255257465208   -0.20483349894310   -2.53267604582216
H           1.28296333761475   -0.54601561493855   -3.40934871856810
O           0.73759409626312    2.40622562597386   -1.86327142532980
H           1.04215565847422    1.52191227840683   -2.15021208450526
H          -0.21049803810478    2.31358368309362   -1.72220694930223
O          -1.29135623490704   -0.70013084284032   -1.63281812757399
H          -1.23797061921116   -1.50406611046583   -1.09444684905481
H          -1.24437144123310    0.02601336001879   -0.98646714440341
H           0.15084621593347   -0.42571676978623   -2.31944218343158
O           1.67374106628659   -1.20899578353694   -0.05606010484103
H           1.40564545006662   -0.15712177903038    0.97968180812114
H           0.88195664471224   -1.77638961397317    0.05108322955440
H           1.62300976830648   -0.83089980990136   -0.95301942973429
N          -1.48372085842640   -0.73486882573471    2.23046042617178
H          -0.71415154335370   -0.55190134774643    2.86445760309498
H          -1.01443556386612   -1.87642295131115    1.10681159098638
H          -2.33018312181068   -0.79026999502438    2.78478906643964
H          -1.55305607292098    0.09304552225841    1.64707284343934
