    26
        -50.44806697  Gyration_radius:  2.62562848558 Dipole_moment: 6.902
 S           1.58508290049263   -1.55640525364366    0.50316116624382
O           1.20215728448354   -0.84502617615122    1.72960626986311
O           0.75546240639788   -2.75588747862713    0.35748104858032
O           1.61370173275663   -0.71556268125822   -0.65517569079074
O           3.06382976984168   -2.07659948447438    0.73284530600720
H           2.98881956204599   -2.72322718510894    1.42870456429778
O           0.78724729592230    3.25188262460949   -0.60461003899143
H           0.35859986063685    4.06917096067768   -0.34714924977361
O          -2.23749115071610    0.08161963125219    0.08724693363439
H          -3.11872260873713    0.24467654096396   -0.25050031481450
O           0.07101147118223    2.00826440240571   -2.87776607140176
H           0.90403423299363    1.77735655101671   -3.29294317585063
H           0.31816746903057    2.49908704795878   -2.06250927281552
O          -0.07222760435580    1.51966309616777    1.25609526081664
H          -0.87326096649185    1.15076083862123    0.85885757778289
H           0.53362170467156    0.77310883485356    1.40301170770747
H           0.57953117581913    2.60182622424454    0.10361261252119
O          -0.71250629901762   -0.34664163236554   -1.88726518316339
H          -1.64716770997493   -0.08228191547950   -0.73726111287531
H          -0.54350573699534    0.51575157588891   -2.33621452803602
H           0.15613377000879   -0.58498564504589   -1.50361276820895
N          -1.19379936811393   -1.77576834456026    1.64346156520140
H          -0.60624414575479   -2.40406166627636    1.00217507042051
H          -0.39701289094561   -1.23440623255181    2.06063113928072
H          -1.77053159969101   -1.10975649017449    1.06104838908478
H          -1.74493056551220   -2.28255814296081    2.32706878531741
