    26
        -50.45529496  Gyration_radius:  2.51416852099 Dipole_moment: 7.412
 S          -0.72622488611096    1.21336131560897    1.57680683151905
O          -0.35752219787523    1.87653211974496    0.34699651164324
O          -2.03626151936015    0.56957999262440    1.49089411394609
O           0.28206739235567    0.29220694465128    2.07464515865786
O          -0.85610012597699    2.34223022555486    2.67963466460018
H          -1.39592019728769    3.01209899324023    2.26973964739848
O          -0.26271187927855   -2.18636630331766   -0.77110130396102
H          -0.53049021572046   -2.82321367225914   -1.43488305374498
O           2.03759476835325    1.72049622206238   -1.02951258850753
H           1.24148896729954    1.99841113062588   -0.55088851795862
O           0.96340764190840    0.79100632101077   -3.26408611967238
H           1.60087825437236    0.16081141516409   -3.60217279677850
H           1.41871978966450    1.26278062790796   -2.52114956866928
O          -1.01531006589008    0.10221904070243   -1.59421486352917
H          -0.40089178297638    0.36287157391391   -2.31900087837664
H          -0.56700693080216   -1.27713451136459   -1.12069960880579
H          -0.89868051796148    0.78525051281900   -0.90949945194343
O           2.03150968697418   -0.71400581808937    0.23623918835192
H           1.53575571776439   -0.31014289761776    0.96823454628870
H           1.42045370908278   -1.31888035884127   -0.20123292961590
H           2.28418593545878    0.87113264770010   -0.61788741306235
N          -1.17020477955915   -1.80153432538884    1.67272190246444
H          -1.57507769021547   -2.53319402533002    2.24602263382135
H          -0.87475172564586   -2.13214573597522    0.71168299757221
H          -1.79742547712284   -0.93430781956743    1.55299265128661
H          -0.35148188919983   -1.33006359416487    2.10971827548517
