    26
        -50.45529473  Gyration_radius:  2.514303251 Dipole_moment: 7.413
 S           1.81582658783117   -0.57843107948114    0.92608283839778
O           1.90569999161465    0.28611319948677   -0.22824475367992
O           1.44678974831169    0.15013172008332    2.13921521635843
O           0.96319305936584   -1.73885336181649    0.72832889745533
O           3.26966424863189   -1.15339241641869    1.17738047148294
H           3.83446719045810   -0.38621793501429    1.15317570143646
O           0.80682511944389   -0.08662341355176   -2.74095414796589
H           1.38725716006471    0.06322181713416   -1.97898789907196
O          -2.22294199568192    0.35281386231564    0.60570526749795
H          -2.99486081831679    0.91153168421875    0.70503134707818
O          -0.64148154240827    2.12934702925667   -2.69546534013782
H          -0.03081926064863    1.36369626068583   -2.84642770065131
H          -1.46049952615592    1.90038353998873   -3.13662625558723
O          -0.28753035520710    1.87016710322804   -0.05238099989511
H          -0.42879231743566    2.12109142887603   -0.99462917693144
H          -1.46132271365405    0.97683328021549    0.33716851710181
H           0.56041277047238    1.39066400112263   -0.04543230081777
O          -0.95150049445810   -1.52769626043971   -1.20610997405182
H           0.13428666590470   -0.71334580461785   -2.41411342708145
H          -0.22400920604654   -1.73064279777512   -0.59434057439974
H          -1.54490957307442   -0.93359559675439   -0.73106352148587
N          -0.81741997268828   -0.94481991345307    2.41852224211714
H           0.05193076921625   -0.31806481170061    2.52956077633868
H          -0.38703102541217   -1.68892866853226    1.83190720994794
H          -1.20106904933221   -1.28441717427273    3.29340904603011
H          -1.52216545090330   -0.43096568285055    1.81928855060334
