    26
        -50.46836585  Gyration_radius:  2.55045326734 Dipole_moment: 5.029
 S           0.21922787731253    0.48130544508569   -0.24199246359464
O          -0.22587233049924    1.61644996546800   -1.01178210479588
O          -0.15943342131474   -0.82637250135612   -1.01069361098183
O           1.65562138863577    0.39977559238304   -0.05678320308946
O          -0.47373539587236    0.39722733051929    1.06142636183244
O          -2.79290340086398    1.35081679541810    0.16366069124260
H          -2.48597804882696    2.10752737537841   -0.34447901580239
H          -2.00211917512157    1.03563010336902    0.64056496333846
O           2.91736677709183    0.57836417972071    2.24164329863192
H           2.57037929865271    0.59370060209711    1.31833936415019
H           2.87889639378060    1.48405885755556    2.55224728056529
O           1.75576154603719   -2.38416291705980    0.06769061566352
H           1.02187261429265   -2.00110459603406   -0.44693739322557
H           2.50378451016328   -1.81218009342077   -0.13456197333664
O          -1.52980517697810    1.38937895228396   -3.31377295961613
H          -1.01804179566759    1.59266828369168   -2.50198727013438
H          -0.88520929129957    1.26852423399756   -4.01202722785570
O          -2.54517571275476   -0.51616800933107   -1.71446406777366
H          -2.86736896852346    0.08482757127852   -1.00151767298669
H          -2.39496523379528    0.07154772665349   -2.48305766878476
H          -1.15589910648131   -0.76109093326792   -1.30146608588303
N           0.99708587088503   -1.25721828669201    2.34396253374792
H           0.27963859489742   -0.58777764119322    1.89335123173442
H           1.31633598961793   -1.88739739756618    1.55681762397814
H           1.80506397481186   -0.64780392189788    2.60522775717961
H           0.61547223184846   -1.77052670705715    3.13059098580205
