    26
        -50.46742657  Gyration_radius:  2.4021926997 Dipole_moment: 4.774
 S           0.75891565289818    0.74605967343159    1.35301522523419
O           1.34600201995915    0.66410154530160    0.01572929803540
O          -0.36412954632390   -0.35811029325311    1.41762179625274
O           1.70060853941012    0.28685522985652    2.37114745321095
O           0.15469291782945    2.03168752187501    1.60442221358491
H          -0.78865485452539    2.52166626838574    0.39574603986098
O          -0.97576029888206   -0.99843318170781   -2.16393306940320
H          -1.21654520763622   -1.29308141539440   -3.04282929169362
O          -1.43022923014767    2.72380311470150   -0.33543346844727
H          -1.87929422497713    3.52825173999609   -0.07144340520644
O           1.26457515830568   -1.82018532149552   -0.71895877710110
H           0.40515187800692   -1.81435326185234   -1.17374889526255
H           1.44255794803565   -0.86114200865703   -0.55975994240666
O          -2.34994274664414    0.18086790873395   -0.10843349887631
H          -2.03517093956547   -0.30919389594567   -0.88963116144560
H          -1.17925731116416   -0.11884439361749    0.87220462212324
H          -2.19502197406169    1.12818880411700   -0.28841578177654
O           0.10726154640214    1.38600258040080   -2.21984442178694
H          -0.50957205991117    2.03221683644306   -1.84746100249516
H           0.73163076963997    1.21173272415693   -1.48661609363950
H          -0.53639430336580   -0.10834969997408   -2.27911760047880
N           1.52126188197821   -2.18951044759112    1.84560058107104
H           1.38076721533544   -2.17152744303735    0.77488160356127
H           1.67198666661202   -1.13063285842985    2.13010037121508
H           0.66292156173098   -2.50047480828138    2.29165079652881
H           2.31163893106010   -2.76759488815875    2.11350639934353
