    26
        -50.46846773  Gyration_radius:  2.39943971505 Dipole_moment: 5.642
 S          -0.26089480967569    1.79413738149249   -0.16391105233174
O           0.82163399083918    0.90171702688762   -0.56270140149413
O          -1.15177616491678    1.08219353457059    0.78456668325605
O           0.22303524023403    3.03278375802735    0.38289290705531
O          -1.11788096366747    2.09152866374340   -1.43130902050486
H          -1.30078868543088    1.21461942406814   -1.84668324079896
O           0.52541232454293   -2.37156205739879    0.56949277808924
H           0.98283760215828   -3.21114335603451    0.62881705499217
O          -1.72134264383923   -0.32273820292747   -2.37976802939492
H          -2.55226146848845   -0.24330997714151   -2.85153235662193
O           2.34077993022157    1.87648322757498    1.47552329251415
H           2.77389026478229    1.62191380791971    0.65510958977371
H           1.61139460694299    2.46838093517119    1.17721037791498
O          -2.07129027809316   -1.27439326784106    0.02618368268285
H          -1.32276373004391   -1.83150700571566    0.28027886989776
H          -1.87151926675311   -0.38479990760899    0.39154205949033
H          -1.93142960213961   -0.76397186463023   -1.50913939113077
O           0.86047083782553   -1.38286484840103   -1.81061094118181
H           0.97537707698794   -0.47852047309888   -1.43927099790765
H           0.68157591217723   -2.03868218780749   -0.36485511993601
H           0.05113289355441   -1.31482131904562   -2.33058153341446
N           0.70639239958082   -0.11652996153253    2.09398030726304
H           0.81895111274057   -1.00749579928484    1.56497156997201
H           0.58785859330925   -0.28556223775939    3.08746397336697
H           1.49312385558322    0.57246499174485    1.90332576017166
H          -0.15191903843319    0.37167971502630    1.66900417827631
