    26
        -50.46742649  Gyration_radius:  2.40230352267 Dipole_moment: 4.779
 S           1.54434087986690   -0.40962913044495    0.64212548333575
O           0.18226777345900   -0.42769220615647    1.43526207594448
O           1.33193637459327    0.44029115481900   -0.52927397912368
O           2.44820969650456    0.22612482455854    1.59771941515230
O           1.88243805297139   -1.76388723937325    0.27791538861090
H           0.90817516695253   -2.36227366846994   -0.85539913755008
O           0.21805357546012   -2.70786290570134   -1.48095848408050
H           0.42194620178409   -3.63609511484665   -1.60489663013200
O          -2.19535364570753    0.68081818451091   -1.16356383982665
H          -2.91579017929566    0.98596734445329   -1.71586357220242
O          -0.34131026751864    2.29934802008574    0.14988100356626
H          -1.16865825612322    1.85946707577563   -0.10968389771989
H           0.35617608868359    1.71667720521585   -0.23852196418550
O          -0.19460147447184   -0.20301827966990   -2.60537557367917
H          -0.14371354669861   -1.16696525720938   -2.53543003409366
H          -1.46507191672897    0.40289820332053   -1.78635585295541
H           0.49776103876118    0.11119807469105   -1.98918731116777
O          -1.66878531088747   -1.65793851870120    0.16176400037920
H          -1.14506169528892   -2.14500779463723   -0.50338463398231
H          -0.53250855086922   -0.96923847678962    0.97148126490092
H          -2.04173565820667   -0.87878460399851   -0.28916193364419
N           0.79960347212434    1.95005161747553    2.46409189777854
H           0.22820169211567    2.16641773757057    1.57358731840513
H           1.19640564649784    2.79072388071574    2.87210757374894
H           0.21179055554773    1.45414406497082    3.12812178073579
H           1.58528427647511    1.24426582783528    2.13299963178597
