    26
        -50.44784108  Gyration_radius:  2.45252990204 Dipole_moment: 2.552
 S           1.01680533510160    1.63077164571113   -0.76783073104979
O          -0.36494426275801    1.18497178249578   -0.71325871316746
O           1.46462344826820    2.38919003531152    0.36142392941168
O           1.90333006153310    0.50329770784611   -1.08974223403949
O           1.07735694840068    2.59545723754115   -2.03250826668328
H           1.84300916333659    3.13793518322415   -1.86992215890342
O           0.26482344133184   -2.22367125299687    0.63665381209479
H           0.75283736857992   -2.96139633904451    1.00403251431470
O          -1.43845403713943   -0.48413457686099   -2.43821355649010
H          -1.12877214317945    0.35203124274609   -2.02835538947170
O          -1.63302905590405    0.78432635568676    2.68288784401620
H          -1.68419772135071    1.69172618836472    2.37642917596784
H          -2.04381373613731    0.24119381352880    1.98588232148713
O           0.75577734369949   -1.56973822739390   -1.75640484546173
H           1.31114696452123   -0.67922058636992   -1.54211024046137
H           0.55348714755980   -1.93533159962442   -0.80931570831357
H          -0.14309024432107   -1.23179453417752   -2.14044563583242
O          -2.06814693192970   -0.64467512956970    0.35512265641258
H          -1.47715868651510   -1.37900652987104    0.56471115294109
H          -1.48932717367262    0.07919094062716    0.05604580257985
H          -2.12960345568869   -0.80112772979633   -1.84020727938602
N           0.97538962459228   -0.07437861585614    1.83377655412667
H           0.13915737776592    0.23732765962303    2.33793608723083
H           1.22297488412557    0.67100524327436    1.18728843302334
H           1.72586126350705   -0.15351799635830    2.50894072214526
H           0.59395706640028   -1.36043189806833    1.13718375345755
