    26
        -50.44784096  Gyration_radius:  2.45175108552 Dipole_moment: 2.563
 S           0.35552129171885   -0.11342133478163    2.03425909266229
O           1.46653541940192    0.75167847955018    2.29519795461030
O          -0.67971971358146    0.43940393612839    1.17781998122296
O           0.76281284477250   -1.44003522092089    1.54946807507681
O          -0.37188619854431   -0.37298739511262    3.42609603104295
H           0.34169939502494   -0.39577516270970    4.05645912082537
O          -2.69916954339449   -0.95309168481666    0.22962036494299
H          -2.15654966225212   -0.40483987068855    0.83617477632010
O           0.50351148449454   -1.01533138500941   -2.03562800337028
H           1.07565791525723   -1.48187203463081   -2.64585396345202
O           0.53995336572982    2.98642624323477   -1.11686906422734
H           0.34775467907560    3.33205834494549   -0.24303060574358
H          -0.25106628756103    2.48655757990955   -1.38861722791877
O          -1.37183935427434    1.00514886473988   -1.38921513249378
H          -1.08952990304644    0.90852895694368   -0.46214919448029
H          -0.82328997755734    0.39004716937809   -1.89232563738175
H          -2.85045997591496   -0.38231089206264   -0.53667607092089
O          -0.64579845158633   -2.37496645235005   -0.23956151645923
H          -1.56024371963342   -1.91634082629076   -0.08759232720358
H          -0.20264162609303   -1.89235817808258   -1.04108713551811
H          -0.04026297843393   -2.05209826973410    0.58280260254182
N           1.92751163257431    0.52935348238162   -0.57138594052075
H           1.12145545136819   -0.40713765768786   -1.44216854271582
H           2.93141631731367    0.47812586509144   -0.69341564405331
H           1.63478576410706    1.47888139154823   -0.82316220325638
H           1.73384184104487    0.41635604102776    0.42084024045662
