    26
        -50.44706781  Gyration_radius:  2.48439926039 Dipole_moment: 6.052
 S          -1.60156554579392    0.15520594218973    1.19195715591582
O          -1.18538321410521    1.05467944941824    0.12869789850789
O          -0.98653523268090   -1.17551421514125    0.99891168593476
O          -1.42427913332036    0.65221280331542    2.52032900317847
O          -3.15618299083182   -0.06997310512092    0.96939649923492
H          -3.26681592040839   -0.06051061216662    0.02261593991899
O           2.14037222404695    0.05257564734474   -0.96427117295979
H           3.01851907303987   -0.32030139112625   -0.87529505165190
O          -1.14063633550242   -0.70429915668160   -2.94520577504093
H          -0.92776459273568   -0.92702522980938   -3.85293029390284
O           0.69304431123676   -0.86374095311683    3.23105746720599
H           0.40123347013122   -1.62371181294938    2.71976783464778
H          -0.09102596072934   -0.28801437470751    3.26155349969646
O           0.02215930176228    1.50381766876320   -2.21269108472554
H          -0.79295123997380    0.21967427659978   -2.78408305102127
H          -0.46123558758175    1.54694856432717   -1.36660309302701
H           0.91990122699874    1.23858090033892   -1.97335565683350
O           0.27254567675225   -1.66474136004689   -1.04391307335333
H          -0.29421531523011   -1.47036006230389   -0.13556487443546
H          -0.33220905510576   -1.38059047963145   -1.81620728080785
H           1.06226561914152   -0.99461424979512   -1.02708390866144
N           1.43805482488264    1.06512335374704    1.26845120511344
H           1.43201821115642    0.36596453817510    2.01676655303517
H           1.88525676817686    1.89855826420899    1.62890019218279
H           1.91252806105914    0.50290427896709   -0.04205363978735
H           0.46290133561101    1.28715133517921    1.08085301160485
