    26
        -50.44706764  Gyration_radius:  2.48431248715 Dipole_moment: 6.051
 S           1.29393113389392    1.33438086628234    0.74414015714375
O           1.57241108818249    0.20669757573396   -0.12959320207769
O          -0.13403750806700    1.70665043286473    0.65047648160671
O           1.73292263029065    1.18597746204210    2.09628743019990
O           2.08399823592248    2.55887382307788    0.11665876941597
H           2.03984212161429    2.41579114229981   -0.82478214939258
O          -1.45027641749562   -1.80809711183226   -0.37492581154794
H          -2.28109615561279   -2.18407016191806   -0.08090376296700
O          -0.19341046821283    0.61325402297505   -3.17111746691486
H          -0.61759303906125    0.39608668716164   -4.00284503573954
O          -0.67424694534151    0.79382735045167    3.25298862276901
H          -1.13283760980222    1.38201098653170    2.64648145555382
H           0.26655345505238    0.99669146443417    3.10837883189706
O          -1.57474239335801    0.64395965636583   -1.02060729768601
H          -0.94727038351862    1.13655866008662   -0.28052789828272
H          -1.07415478047097    0.72255443096531   -1.90741737566501
H          -1.56703414091830   -0.36015957066746   -0.76671208539400
O           0.83823424709234   -1.49654738933559   -2.05363029418591
H           1.28972511677501   -0.98035092697181   -1.36003235282186
H           0.09591449748702   -1.92154607909293   -1.60426482627031
H           0.30781920237417   -0.20183366466905   -2.87961102629392
N           0.05904243061071   -1.44581022832624    1.64858879393195
H          -0.84215482673858   -1.72432081725164    0.47852545561798
H           0.45445918556750   -2.22885865127766    2.15356762088441
H           0.82432436061679   -0.92423679488319    1.22701072315238
H          -0.37032305699739   -0.81748317507736    2.33386624301953
