    26
        -50.44784094  Gyration_radius:  2.45174540819 Dipole_moment: 2.566
 S           1.07197310988955    1.15743668139660    1.33762923802186
O           0.78309914073915    1.19413486978623   -0.08578566612743
O           0.10340621156572    1.79313986329740    2.17944754369769
O           1.38455715730866   -0.21574075710301    1.75857056874001
O           2.43140968430295    1.97071598498356    1.49204591227651
H           2.43444669003318    2.23852123549574    2.40590365599585
O           2.15318146676216   -0.13273896395351   -1.89526397093749
H           1.88281258702015    0.57859861640405   -1.27548054398157
O          -0.83801348679186   -2.14491485876407   -0.34982966155695
H          -1.21517535023601   -2.97834242063196   -0.06614033118487
O          -2.76953409670290    1.44322183632516   -0.83723610068761
H          -2.36824978400724    2.29277030480066   -0.64483776544755
H          -2.20167716631256    1.02317996966719   -1.50836912915290
O          -0.69987500962614    0.09244090344839   -2.07976286835942
H           1.43706015396245   -0.16816540568848   -2.54461381974420
H          -0.90882676750330   -0.78072041782391   -1.72441416741246
H          -0.24711145818169    0.56632625230253   -1.35939190721304
O           1.65655061024345   -1.83523356815582   -0.07555948342685
H           0.65608942626120   -2.05569925759260   -0.22521273294394
H           1.95117617374499   -1.24485128521000   -0.87222432455907
H           1.61920696986179   -1.16521948985939    0.75858069568824
N          -1.68289809259124   -0.28038034707561    1.18822059655259
H          -1.19108629831227   -1.40899898775208    0.31211027514875
H          -2.25672881380026    0.31986954847514    0.58720496337683
H          -2.25576632651012   -0.55993265067809    1.97498395621224
H          -0.93002675112072    0.30058238393197    1.54942507703883
