    26
        -50.44706782  Gyration_radius:  2.48422235662 Dipole_moment: 6.052
 S           1.86528129611275   -0.29581925943595    0.66304458712483
O           0.89146035564643    0.67566038771512    1.13258535509554
O           1.17986862177179   -1.39843384202348   -0.04474811429118
O           2.95530851665507    0.24222700608972   -0.08880291449641
O           2.46829528104220   -0.95598474620024    1.97366303329511
H           1.73772170066611   -0.98700001557238    2.58520514950538
O          -1.93030242323438    0.65094493944920   -1.16873178617528
H          -2.37672865620606    0.54506686712771   -2.00989878554113
O          -1.95997227330737   -1.02322402437381    2.36118078723030
H          -2.86374324078286   -1.18469089330820    2.63689449051983
O           2.20414888604705   -0.60520267546863   -2.53911264462992
H           2.72975947316195   -0.27515833347480   -1.78942709738340
H           1.81775995364964   -1.42095938778614   -2.20842588259458
O          -1.26569890801408   -1.52734729837224   -0.04644240945343
H          -1.56927009984777   -0.66075177735156   -0.52527199321249
H          -0.17779156913679   -1.49421934768915   -0.04587039831783
H          -1.54750955701316   -1.43256531216764    0.93079102656408
O          -1.63594080932569    1.43020297694389    1.56206286198607
H          -0.66693650241146    1.34163948249388    1.49401559822205
H          -1.95042411090372    1.43249734189909    0.64846482205547
H          -1.87214892872425   -0.03707197651544    2.21755459587450
N           0.45831507632610    1.43949844292316   -1.59013824909736
H           0.98177044873609    0.77346939765608   -2.16561525666433
H           0.64799237634557    2.36845712648044   -1.94459410004152
H          -0.97201820739885    1.02495806928701   -1.38473502957488
H           0.85080330009909    1.37380686164151   -0.65364766600428
