    26
        -50.46229150  Gyration_radius:  2.41130233838 Dipole_moment: 5.660
 S           0.90764166512482   -0.77793293435209    1.62949480181521
O          -0.24866989105670   -0.13197077036429    2.24376011944559
O           0.81165658002530   -2.21127614260815    1.59924217855799
O           1.22967457003840   -0.15621901017678    0.35123384157094
O           2.15136067553694   -0.43465514072105    2.56157745809303
H           2.14194292260401   -1.15534808959456    3.18284596550669
O           1.35186340264196   -1.92844197538632   -1.80528802802871
H           1.60379079318982   -1.50185573929221   -0.97267895003898
O          -2.28902525477414    0.06448918572804   -1.02031060062641
H          -3.20396975586550   -0.20159419604838   -1.11862697595313
O           1.14194042451688    2.52572943708582   -0.12821762156972
H           1.05046675307349    2.37439288956638   -1.08158521768100
H           1.50473943429670    1.68724359953843    0.20969065484273
O          -0.97234075276171   -2.08787741212278   -0.38508616454326
H          -0.48662429349278   -2.21138003549243    0.44894920112112
H          -1.79705662522916   -0.76363464275457   -0.74790224565024
H          -0.28954647007160   -2.23677295627841   -1.06866994660418
O           0.23934318464987    0.78831754916624   -2.07625155266871
H           0.56515326745907    0.36261689743272   -1.26659013530611
H           1.27604649568414   -1.21803543304708   -2.45159236568014
H          -0.70666646102026    0.60590278426718   -2.09372652567836
N          -1.22003161906619    1.75044676774957    0.79522249738187
H          -0.35713927883152    2.22400618836254    0.40134839244018
H          -1.73045989232610    1.23193128264913    0.04600776037115
H          -0.84945593497603    0.99632160135548    1.46941823541050
H          -1.82463393974581    2.40559629534135    1.27773522349612
