    26
        -50.46253650  Gyration_radius:  2.46029952289 Dipole_moment: 4.978
 S           1.69301161821099   -1.18045540874848    0.15310700785798
O           0.77502185393074   -2.12292273757493   -0.48309167888162
O           2.58679424229135   -0.53374847532961   -0.77104726850526
O           0.96989202635988   -0.27472065858502    1.03134104776803
O           2.61061607444036   -2.04877185394264    1.12187410151950
H           3.29629896456273   -2.34305257668060    0.53130816924698
O          -1.86759915060669    0.53710174669670   -1.40383411936217
H          -2.37312629178521    0.77451479792004   -2.18193570689899
O           1.17587665280223    2.97688971533092   -0.65146075685144
H           1.99024715570689    2.69873198259496   -0.22761686224818
O          -1.19614608679202   -0.55240388108276    2.55027413197088
H          -0.25493868231272   -0.56161354006179    2.28576237750145
H          -1.44161006516636    0.38074440286487    2.51188551800734
O          -0.75821810320546    1.78787195108439    0.87927143686791
H           0.45900144541758    2.79856324261392   -0.01132573405786
H          -1.31801448231974    1.53477530327286    0.13215459803261
H          -0.07091344976202    1.09697501276065    0.93333192299979
O           0.61854248259264    0.73077673235684   -2.05898075088065
H           1.32902648058387    0.16811277618821   -1.70209182860121
H          -0.90233023185602    0.56224640970133   -1.68909147751959
H           0.84167307637781    1.63556438553237   -1.75003556026059
N          -1.66376777584188   -1.62826232383147    0.16210711396827
H          -1.62959800881264   -1.26784894478138    1.15598654372333
H          -2.29282282017478   -2.41737376968085    0.06617787084475
H          -1.92157187711187   -0.84609686618275   -0.47954561801446
H          -0.65534506758112   -1.90559744231082   -0.10452451819569
