    26
        -50.43974359  Gyration_radius:  2.62994386983 Dipole_moment: 1.924
 S           0.93099834671423    1.08788641775035    2.02667240309017
O           2.18998424288782    1.57445441631923    1.51422139347346
O          -0.20068910550229    1.90833831633105    1.53080228583913
O           0.67487654321577   -0.31294989010528    1.84025686687932
O           0.96307537346895    1.34969021848144    3.59660140239802
H           1.38180780058774    2.20294997580653    3.66597757664142
O          -0.34550811106188   -1.33621960304518   -0.74288757831953
H          -0.69718656453848   -1.53268999413775   -1.62808686122226
O          -0.48387236075141    1.80635617577403   -2.08253415318702
H          -0.37562501959848    2.75800184462668   -2.10302598228073
O          -0.98361653289489   -0.74276398196970   -3.30480927298098
H          -0.23515004640495   -0.88395596485886   -3.88723764856083
H          -0.94608410557629    0.18878174365410   -3.04379799152036
O          -1.63312529183266    0.70939076009146   -0.02988860252342
H          -1.40490099188403    1.22997663497114   -0.85795198732045
H          -1.14443366346643   -0.19357113622522   -0.19963052711452
H          -1.03403136803320    1.23010275333434    0.75493769644898
O           1.54940225736591    0.69545389720709   -0.90953479838741
H           1.88980503084363    1.06451834416838   -0.07057502094720
H           1.17971276420531   -0.17231043224993   -0.68563073762837
H           0.36697214069052    1.43735180286132   -1.69759163782509
N          -0.36529072558996   -2.95789544900464    1.34111910910331
H          -0.42375893019654   -2.10619581902398   -0.12484916129043
H           0.04629629259633   -2.11585112712901    1.74517951953232
H          -1.19608043493524   -3.17665200373870    1.87685550522950
H           0.29642249963463   -3.71219787984792    1.47540821241776
