    26
        -50.45450924  Gyration_radius:  2.45163367654 Dipole_moment: 5.292
 S           0.40144798128940    1.45625243412047    1.44158530555285
O          -1.04062133017020    0.94142058008671    1.58550092074273
O           0.98655260195973    1.49918739331218    2.73260345293401
O           1.10294219424561    0.64965900564004    0.45939576269766
O           0.24387269091143    2.87488459100124    0.85225749192302
H           0.48151315280036    2.84427203321651   -0.12429703964162
O          -0.78638061839870   -2.48896837867132    0.12799065429325
H          -1.29877532388895   -3.26314644795751    0.36447170415506
O          -0.50757967250586    0.51852374419918   -2.67418274075365
H          -0.65157988709610    0.36287346053746   -3.60826459307204
O           0.99198678291036    2.50997735826174   -1.58530311089443
H           0.34510931423569    1.93450866460021   -2.04076401690101
H           1.70639541610046    1.92308169232411   -1.31577419965041
O          -2.00337541712152   -0.13821611209161   -0.48351782866795
H          -1.45483158422693    0.56658501047453    0.72168229808770
H          -1.58504762778904    0.19436378624698   -1.29866469989592
H          -1.65307344608879   -1.04227300729329   -0.34072834221385
O           1.05588013851876   -1.20402946585423   -1.50193813192542
H           1.25453169664474   -0.59175085853529   -0.77191763667342
H           0.49140289730210   -1.88136788022455   -1.10006654130684
H           0.13134565355831   -0.18046997122084   -2.35290748892260
N           0.40942414831798   -1.50412322254439    2.29911768475076
H           1.00877492487936   -0.81345358200645    1.85830051009212
H          -0.33601383674548   -2.17487407981142    0.96483088790384
H           0.97533183219246   -2.02286297285748    2.96053824755378
H          -0.26923267182796   -0.97005378494674    2.83005146981894
