    26
        -50.45450915  Gyration_radius:  2.45147815693 Dipole_moment: 5.292
 S          -0.11616808378541    1.96032303851355    0.70830664325341
O          -0.57127055022174    2.60918134188431    1.88418059057264
O           1.27408269010222    1.36822224614305    0.99458093295263
O          -0.98361351742598    0.91867997016564    0.18875895428603
O           0.12761421397973    2.97436943174488   -0.43053068240841
H          -0.20282176704131    2.57436936669987   -1.29187370365205
O           0.53975097054939   -2.29278766665586    1.13216049509083
H           0.99098657885136   -2.95967488533703    1.65125843666586
O           0.30562806297836   -0.70368515359255   -2.66163000088986
H           0.34611422743248   -1.24866397302245   -3.44828584904141
O          -0.87913492011735    1.73598675623121   -2.45227974190211
H          -1.62072103593127    1.41188503283962   -1.93031414027257
H          -0.33851814163491    0.94470884343889   -2.64909657077408
O          -1.30741190202982   -1.56862507819493   -0.80811028677394
H          -0.77906281054567   -2.08657557062268   -0.18239232830943
H          -1.37440952527155   -0.68920149693230   -0.39652386062292
H          -0.36756785378074   -1.11793733731446   -2.04905710679753
O           1.92556674984680   -0.58646878227734   -0.46401387419748
H           1.56579034221065    0.61861693269446    0.35316156224949
H           1.50049233231333   -1.29632340452828    0.06124664941159
H           1.46857177746686   -0.56861712828245   -1.32478557041333
N          -0.34193288259455   -0.35099580205077    2.73374328368077
H           0.20354488061232   -1.60470532231954    1.77661010036227
H          -0.88974701185207   -0.47037362297514    3.57774451856264
H           0.43404563972041    0.26197584075183    2.95702026200399
H          -0.90980846381793    0.16631643299833    2.07012126695979
