    26
        -50.46846768  Gyration_radius:  2.39934435395 Dipole_moment: 5.643
 S          -0.03177287442192    1.28355787474378    1.29001193074066
O           0.24264954998970   -0.14872654983365    1.31226561522089
O          -0.65945490957156    1.63691247984917   -0.00666122248758
O          -0.83386819678876    1.70542560996433    2.40630511322912
O           1.33755579895685    2.02686963746553    1.33107859218803
H           1.89864482754832    1.60025632048292    0.63961298204103
O          -0.33711991552652   -1.80732776616492   -1.68534229677896
H          -0.37671690376036   -2.67309368364729   -2.09338563797472
O           2.71554155405059    0.94765675693081   -0.67608651974597
H           3.33988570443902    1.60848767975511   -0.98063063112857
O          -2.18872823597137   -0.56984435292715    2.46264561588032
H          -1.82444128880461    0.33897448552788    2.57608695294424
H          -1.45417460375178   -1.13964346317804    2.71007415557277
O           1.75581036147767   -1.68191255840872   -0.14952725755721
H           2.42319264473749   -1.04867833922816   -0.43872730313898
H           1.24739018161885   -1.18855664353587    0.53390115458564
H           0.48674027743315   -1.81121483628279   -1.11134504182732
O           0.59496810916377    0.85840004963181   -2.19627931784385
H           1.97930668289213    0.92221037533034   -1.35008730195758
H           0.26486061752518   -0.04843333122058   -2.25965756852945
H           0.07682582632696    1.27554022877902   -1.47358144263938
N          -2.16079850590797   -0.44116563506199   -0.18479722239452
H          -3.07258976379271   -0.36277709478339   -0.62311913211593
H          -1.63231404959892    0.49492072158347   -0.19683171392937
H          -2.24047372260231   -0.65818218915351    0.85274046975775
H          -1.55091916566590   -1.11965576661822   -0.68866296211540
