    26
        -50.46846774  Gyration_radius:  2.39941166865 Dipole_moment: 5.642
 S           0.22726903429695    1.80557951495471   -0.04015679146966
O           0.85869327152988    0.70328692010781   -0.75667003499053
O          -0.53587801080767    1.26247768604934    1.10996810955458
O           1.17439378530952    2.80664469946040    0.37012060058210
O          -0.82084378469566    2.45071944839830   -0.99638820612463
H          -1.35241190962400    1.70233458070457   -1.36017554320163
O          -0.03896240830607   -2.47154290727834    0.33804534416819
H           0.15599976805730   -3.40461121172463    0.24297352043112
O          -2.32259950136733    0.39686970634693   -1.78231262736796
H          -3.19197778606020    0.74397904039977   -1.98959284156247
O           3.08869363203526    1.02090915171116    0.77276028234861
H           3.19031396567430    0.74704976432022   -0.14381762004445
H           2.50600944111542    1.81359374071611    0.71327887969417
O          -2.25958148591083   -0.67189873939837    0.59890447737770
H          -2.40398745523958   -0.06050704655235   -0.89850057944298
H          -1.66102765535388   -1.43140674529980    0.61124662656097
H          -1.72286895479657    0.08945794199377    0.91042215238273
O          -0.09706179315722   -1.36657722825124   -2.01356655725323
H          -0.05483961020850   -2.09744298577820   -0.59364650422654
H          -0.96308566147081   -1.03185654742068   -2.27422305433067
H           0.36749943412490   -0.56917801604606   -1.67108606600710
N           1.18707351695105   -0.51733229566405    1.79434485890152
H           0.42169234889751    0.22338360073283    1.64863016808195
H           1.30090451957108   -0.75067147829006    2.77527544748775
H           0.89216868414030   -1.34617744222575    1.23550153757900
H           2.05441461529550   -0.04708314196321    1.39866443086959
