    26
        -50.46564540  Gyration_radius:  2.53832537318 Dipole_moment: 3.632
 S          -1.32126694063969   -1.36689103485722   -0.77977948555591
O          -0.21357953413225   -1.82238817059923   -1.60382017208773
O          -1.32229973634559   -1.97543793028471    0.54055054699925
O          -1.43064221187220    0.08181265478639   -0.73302785340080
O          -2.65059658130112   -1.85441271638182   -1.50170918497703
H          -2.57936464629320   -2.80410395971830   -1.53018099472321
O          -0.08041865501068    1.63391335674746    2.56944171345638
H          -0.37534618938510    2.54256915407546    2.49377113314610
O           1.95578916326401    1.90736217448808   -1.35278953612904
H           1.67788398634365    2.81910432912998   -1.45182146861802
O           1.30451298145687   -1.85673669855429    0.54291013221183
H           1.11338702378528   -1.94313289758626   -0.40947331755630
H           0.42462287555998   -2.03841115597888    0.92210335231120
O           0.18430055169111    0.58844877405063   -2.74928417594651
H           1.35567277642752    1.38254853524926   -1.95338012616916
H           0.36739495834195   -0.36052362279384   -2.78399438356370
H          -0.54139424701875    0.62688343516103   -2.09555754989621
O          -2.16479885495874    0.26483310405694    1.78836912350224
H          -2.03080720196883   -0.69076935984748    1.85236440630646
H          -0.88524253255863    1.07838016066321    2.37015612869841
H          -2.05650033103277    0.41690929509040    0.82889795806248
N           1.86212845094931    0.68229802508584    1.01225316930407
H           2.75768042389348    0.76291392443141    1.48322674184397
H           1.89654277425514    1.19023246704184    0.08757627723559
H           1.65307980871452   -0.34794122072915    0.83101339605099
H           1.09926188781965    1.08253938728480    1.62218417949039
