    26
        -50.46564553  Gyration_radius:  2.53802711527 Dipole_moment: 3.617
 S           0.08727363300197    2.04839701738118   -0.11568000097206
O           0.65162599753729    1.85894471143072   -1.44191287867505
O          -1.36613057654353    2.01904533999753   -0.11719763363336
O           0.66809975123057    1.15842094341306    0.87626768914915
O           0.50847192476411    3.50891644654288    0.34902960771933
H           0.13029371231501    4.09191917480689   -0.30286224068044
O          -1.61601397068350   -1.84647672173670    1.80948064186012
H          -1.16178782654689   -2.21142557412328    2.57030812455434
O           2.08151416071826   -2.14136029266431   -0.61061284551980
H           2.55592527040943   -2.50458696384340    0.13862794196744
O          -1.26893025253002    0.13677578261310   -1.95185128676103
H          -0.45245529308329    0.63648219066156   -2.13834677233561
H          -1.70727308442796    0.73442232955115   -1.31822350490055
O          -1.53705777675527    0.72857865278730    2.24820850371450
H          -1.68978459928713   -0.86794380839557    1.99124053534274
H          -0.60488538737472    0.86528607842002    1.98755272544407
H          -2.00659317566467    1.23980993576385    1.57492111469337
O           2.73693741856163    0.38789684622800   -0.55750033906858
H           2.14745297824185    0.64710295278521    0.17807564470426
H           2.38517327473690   -1.19326547876335   -0.67974289348985
H           2.36483537565508    0.89064009641737   -1.29483999846000
N          -0.58200684934175   -2.05026875328952   -0.63848113151611
H          -0.95373113644101   -2.87036786138551   -1.10702616851967
H           0.47184503096162   -2.10218336231824   -0.60766769263342
H          -0.86781865757849   -1.17753052860312   -1.18096970233063
H          -0.97497996187575   -1.98722914367936    0.33920257035722
