    26
        -50.46232186  Gyration_radius:  2.55792444335 Dipole_moment: 5.324
 S           0.50157308280575    0.60634181208424    0.24090287512321
O           1.85191857046696    0.08360912936017    0.33798880915459
O          -0.35516486097288   -0.28910451229897   -0.54974160724772
O          -0.05409567350721    0.81718834382402    1.58343187453140
O           0.51674965107619    1.98294229647481   -0.45498348701350
O          -2.56904939599092    2.64611785314568   -2.00670961070811
H          -2.68013170223395    2.14219113011166   -1.17194237075512
H          -2.36301960565098    3.54644289351935   -1.75017857441797
O           0.06477820234572   -2.66392601728407    0.57118330811750
H          -0.25642315231019   -1.87587029320012    0.08083293263961
H           0.93440668795990   -2.85931811520642    0.16097230919873
O          -2.44556028098953    1.17456705547180    0.25629655163854
H          -1.92274062009645    1.47042880231645    1.01024774446424
H          -1.90172158306492    0.46507605499048   -0.12514131069868
O           2.56283212627221   -2.36930904946630   -0.30639456341560
H           2.39290901971939   -1.42028781831060   -0.10723250710548
H           2.86950133067415   -2.39584310169869   -1.21368926486655
O          -0.36419444163368    1.34384966867328   -2.74934537304082
H          -0.53208731808141    0.46219800352153   -2.38894107863896
H          -1.22270909493266    1.82739863982555   -2.68714896533257
H           0.27201515799627    1.83535315423114   -1.43022135370184
N           0.95028921439999   -1.32052358351266    2.58541073389888
H           0.75909383412694   -1.59811143900370    3.54289136539436
H           0.50435890459922   -0.37120546276080    2.32560442607186
H           1.94913289000044   -1.22934727330132    2.40698433776873
H           0.53733904698923   -2.01085818150384    1.83892275894959
