    26
        -50.44483759  Gyration_radius:  2.51302790073 Dipole_moment: 4.675
 S          -1.03252054610635    1.59224715217218    1.05953381916545
O          -0.80742152786142    1.30663622033273   -0.34320316621756
O          -2.02470175601564    0.75139710400180    1.68230442423944
O           0.22954477035346    1.60208020928397    1.81354842083478
O          -1.57865620989648    3.07491886788898    1.13166802282741
H          -1.89033774991068    3.10843852920138    2.02971059897061
O           0.78612703249987   -1.97399899794234    0.15599732954426
H           0.98834760887614   -2.83923772447002    0.51303385048300
O           3.19726409875914    0.81657457107945   -0.65829291100184
H           3.94964960975186    0.34434628347672   -1.01771747592525
O          -2.14541764867009   -0.22317951900394   -2.15058549451312
H          -1.46993758133261   -0.26418819883108   -2.83171035275586
H          -1.84463155566553    0.46673944146053   -1.53335376435976
O           1.00383767953697    0.00688612801961   -1.82471593078093
H           0.90847452857077   -0.85332695188429   -1.39168813397686
H           0.35562696519112    0.58421231090996   -1.37443519745321
H           2.42069370657992    0.62082758818407   -1.25128567237674
O           1.95049018673692   -0.09506767512295    1.37869953258239
H           1.45560425486908   -0.88551165792386    0.91482870766142
H           2.53712783698244    0.32602437132033    0.65463524522279
H           1.20555185644344    0.64697877720340    1.60514623950913
N          -1.71066829415098   -1.64351710615912    0.30239986633461
H          -1.87806260084632   -0.82094537532938    0.89050360143406
H          -0.28869021045903   -1.85360899883716    0.23379523177029
H          -2.28426147938516   -2.40326816657662    0.64538009974442
H          -2.03303298486704   -1.39245716245142   -0.63419689095887
