    26
        -50.44483774  Gyration_radius:  2.51325958642 Dipole_moment: 4.678
 S          -0.06653746904512    1.20046139229377    1.81051795981794
O           0.98419667487266    0.49939821974765    2.50582070776098
O           0.23377823073832    1.49753129009232    0.42435565840558
O          -1.36232371181152    0.51874621692770    1.94384285134694
O          -0.24694034016624    2.59351142117689    2.53771255447486
H          -0.23365333683188    2.32292655973304    3.44949481327075
O          -2.93884596163918    0.06117969812861   -1.63906708552116
H          -3.29247620458113   -0.40456363658986   -2.39828435423664
O           0.12001174853002   -1.97992352610816   -0.77635575259479
H           0.21904578805269   -2.93179820853050   -0.80998286615119
O           2.52396202976073    1.35592344392099   -1.03632771697456
H           2.13993532651567    1.42301975484698   -1.91379946886289
H           1.80513220677230    1.59132854174913   -0.42375929740292
O          -2.01283492158742   -1.23893557958472    0.35736526678354
H          -1.12519016790163   -1.57102057337529   -0.07386438160815
H          -1.74433928268463   -0.48805822052148    1.07944112620307
H          -2.50742659927005   -0.73519908545766   -0.38267672041528
O          -0.38748184822151    0.50628721963166   -1.98344397643428
H          -0.05286549565018   -0.38819723877117   -1.82694892141361
H          -2.02631300403797    0.37439836039397   -1.88895494232400
H          -0.19173340105664    0.99187502523596   -1.15758562836789
N           2.09960844696106   -1.04334438427246    0.47671137284334
H           0.97686099959049   -1.60179045862946   -0.23063215024485
H           2.52154925084482   -0.33184080579027   -0.12311137695528
H           1.73756554721717   -0.54578292637476    1.29632519158534
H           2.82731549462122   -1.67613248988046    0.78320712702052
