    26
        -50.43876723  Gyration_radius:  2.56306242641 Dipole_moment: 1.935
 S           1.00938235317362   -0.85822871465245   -1.95349785981454
O           2.09151230352277   -1.56278666362415   -1.30725224686040
O          -0.30246129126853   -1.37054685814386   -1.50601076067585
O           1.06916451610258    0.57844160566660   -1.86191019722133
O           1.08577644968359   -1.23041764260254   -3.49329564051954
H           1.34278856811040   -2.14633943952097   -3.45826024736276
O           0.49479168019339    0.50765276861063    1.81768195821926
H           0.60194492211630    0.50420179575422    2.76969029467182
O          -2.82830397805820   -0.03932407079096   -0.25228295734058
H          -2.85009608642979   -0.49622932908593   -1.09639523670685
O          -2.35745627658039    0.86155553662228    2.40206488565063
H          -2.07658837610883    1.72269451671567    2.08560497960381
H          -3.04618212768979    0.57013344568499    1.79765897629989
O          -0.94571007189113   -1.36628279664754    0.85453094902016
H          -1.83175357976758   -0.90615797781321    0.63474860581779
H          -0.55832668910762   -1.46380991963803   -0.14986193850521
H          -0.37998896626688   -0.64654023817159    1.32204370287955
O          -0.83734370497738    1.65804236215461   -0.35462735111185
H          -0.39178514048481    1.50874567138851    0.49186643532630
H          -0.19284711177008    1.34944019974751   -1.02589702846991
H          -2.17412604843898    0.70525265282755   -0.37388177026474
N           2.72224287765629    0.42934730473024    0.52477416032832
H           2.60918924639325   -0.39880090581907   -0.06660446478375
H           3.64852347992125    0.40426305083627    0.93308995028405
H           2.67623411221777    1.21739251905708   -0.11138770958305
H           1.42141893975788    0.46830115671503    1.37741050112122
