    26
        -50.43876691  Gyration_radius:  2.56271625613 Dipole_moment: 1.950
 S          -0.52538287652694   -1.77553855049779    1.46355232344745
O          -0.98494525040430   -1.80566192365042    0.05958593439658
O           0.80794453808523   -2.31596627416833    1.58700537469153
O          -0.71770335599536   -0.47335566396600    2.04951519670277
O          -1.48950476391934   -2.77734244388095    2.22702290404702
H          -1.10080915988437   -3.61940206543230    2.01244954480164
O          -2.07861625816806    0.35526391413327   -1.90065596483781
H          -2.59253616753043   -0.40928282670032   -1.63012567654535
O           1.51742401168327    1.14379302282077   -0.45392601619004
H           2.26689443117859    1.52490381671035   -0.91316532383421
O          -0.06835143556336    2.20499082652778   -2.68222911728930
H          -0.90088769292029    1.81285451138085   -2.96089051011954
H          -0.28206180248980    2.78061992542008   -1.94494884805960
O          -1.16059798476023    1.46732791926314    0.28598924054127
H          -1.13720504385133    0.79201580493654    0.99636920607026
H          -0.22939764489715    1.62030869263760    0.07008224202844
H          -1.87887818764750    0.84888553210633   -1.05631404577786
O           0.25375662087136   -0.67418705783818   -1.72186761685348
H          -0.59521066984408   -0.20493183092754   -2.04395079612785
H           0.81598669412140    0.06492724586368   -1.27958964856561
H          -0.17594528349573   -1.26005813315420   -0.92246265145113
N           2.11712394779165    0.12245858930606    1.83371998727147
H           3.03605872112747    0.11253995521101    2.25891348860320
H           1.79504714124608   -0.84505414571854    1.74125738941907
H           1.47046920287102    0.55544172674268    2.48353712542508
H           1.83732826892176    0.75444943287576    0.44112624820572
