    26
        -50.43876714  Gyration_radius:  2.56300957913 Dipole_moment: 1.943
 S          -1.50115055406668   -0.75337913760911    1.65875835273836
O          -2.41336652372627    0.36469039894858    1.60519225459400
O          -1.42520040532462   -1.44238477677167    0.35378594252476
O          -0.18775846921081   -0.45150905200525    2.16855436599244
O          -2.14928861760641   -1.81650232005241    2.64118623036673
H          -3.07402802892165   -1.73479653022163    2.43050521697292
O           0.91934301602885   -2.18555829812302   -1.56290702139641
H           0.35277079913139   -2.84613747836967   -1.15741970498726
O           0.62374694423299    1.67924783207897   -0.77731888898746
H           0.75258961964697    2.41381927630999   -1.37863339093803
O           2.05950859332688    0.10755917895864   -2.79513047433827
H           2.69152818005815    0.20620919196777   -2.08004733989975
H           1.92833231700210   -0.83891616159650   -2.90253204460712
O          -0.76026500060989   -0.26308021793637   -1.68464988113317
H          -0.06529400186276   -0.98093854134665   -1.89981316640562
H          -1.17105467238282   -0.69664842558080   -0.78425132841612
H          -0.21452423271595    0.55919834829231   -1.39574433191714
O           1.75354865014136   -0.61354936859439    0.35838558003713
H           1.11917561120472   -0.66306496911672    1.10433662339587
H           1.34904496764355   -1.70482332973005   -0.80066581883627
H           1.61487361579166    0.26841839650883   -0.01589120998657
N          -0.47492248034004    2.34988192710647    1.45433165430653
H          -0.75093011063992    3.28576588818290    1.72490916334338
H           0.14756835867058    1.98351430885614    2.16578718847724
H          -1.30255633906635    1.74804831989614    1.48812758048927
H           0.17830879359423    2.02493555995155    0.08114444861799
