    26
        -50.43876704  Gyration_radius:  2.56302323852 Dipole_moment: 1.942
 S          -0.48552510461177    1.17698260506367    1.98799607261668
O          -0.85773531439681   -0.24669963535894    1.85465004320612
O           0.87278400891541    1.31869072725427    2.45709163402267
O          -0.80322389963316    1.91536454320488    0.79218296837836
O          -1.42053158384801    1.73391039889575    3.14192939541197
H          -0.96147623630262    1.43742041378885    3.92138842599829
O          -1.98226237970757   -1.97509891550248   -0.48524661122578
H          -2.45878793328965   -1.84517043121315    0.33807118814649
O           1.45777712955506   -0.19453704785557   -1.28507862913412
H           2.20462758636082   -0.54713544096733   -1.77060073755847
O          -0.06141705043333   -2.36489892990441   -2.54273311161404
H          -0.84675562739920   -2.74876018905995   -2.14221550006266
H          -0.35769092723311   -1.57409298630315   -2.99820494011732
O          -1.27533154078319    0.39763084984851   -1.33985675619037
H          -1.86783590910181   -1.06073473772754   -0.86918856092133
H          -1.24696401354705    1.01233406972284   -0.57658670222767
H          -0.34594217271819    0.26778710932105   -1.57765598726507
O           0.40079252378503   -1.77500321913842    0.41651064627684
H          -0.03338227826219   -1.09102054128811    1.13122312644955
H          -0.45818813854229   -2.08910368198216   -0.03982473895270
H           0.88312937523220   -1.20169240823485   -0.28810706720673
N           1.99081110357477    1.97410383970007   -0.00074675891300
H           1.75047996122282    0.66100650755841   -0.79799346570141
H           1.74345648478123    1.73293710911341    0.96312332217292
H           2.88125394360801    2.45611108335142    0.01050423536305
H           1.27793798277751    2.62966889771757   -0.30063152095652
