    26
        -50.43876696  Gyration_radius:  2.56277774093 Dipole_moment: 1.949
 S          -0.82782732703045   -0.45622495549891    2.16273135968213
O           0.59433204092083   -0.69713620773069    1.84226766071094
O          -1.04531764573562    0.91169745531170    2.57098846565255
O          -1.68913980603826   -0.92753519932310    1.10816658429030
O          -1.11451252240073   -1.35707031205524    3.43620001450406
H          -0.76146789656237   -0.81799585913027    4.13687404367127
O           2.08556095108315   -1.81077413870121   -0.65696917036638
H           2.12245395367562   -2.23647043458481    0.20281934731890
O          -0.14388157708046    1.37585536328664   -1.37964383110699
H           0.05492601325388    2.11695814938172   -1.95315450144001
O           1.97996341346026   -0.01213346775400   -2.85374484078748
H           2.49570992938735   -0.72713551140237   -2.46989945908034
H           1.16885695328213   -0.41409645979310   -3.17167668529038
O           1.76320538078924    0.60002227228520    0.12775160555919
H           1.04892176470201    0.97354916170360   -0.51082500013194
H           1.23626708741753    0.15327928482377    0.95811801460333
H           2.09953756077741   -0.25467370678299   -0.32069881974145
O          -0.44448115195544   -1.39884910996811   -1.19391335565040
H           1.11955047488954   -1.81263475274123   -0.90907194458446
H          -0.94552850326605   -1.37644691546402   -0.35143315426994
H          -0.44874157425161   -0.48028090800460   -1.49949933107877
N          -2.15486827650199    1.78470917408442    0.17773364933470
H          -0.94856589119227    1.61771178420014   -0.78893787946136
H          -2.76727632314379    0.99280267093193    0.01737330383439
H          -1.75584725027248    1.62980766202536    1.10789825872357
H          -2.72182977820400    2.62306495089557    0.21054564510841
