    26
        -50.43876718  Gyration_radius:  2.56298156439 Dipole_moment: 1.941
 S          -1.99570975687020    1.25915738190701    0.06264791298432
O          -1.69025787780195    2.03047217276517    1.24453669597116
O          -0.99778688281486    1.49632735822617   -1.00105863153683
O          -2.20021708452391   -0.14979999639268    0.28389374049898
O          -3.35217085710403    1.84149975618698   -0.51707807278594
H          -3.24858872142000    2.77306723506972   -0.35080206816164
O           1.36791340789967   -0.66503437240693    1.22445089059101
H           2.19130665354904   -0.77004477700720    1.70287659846439
O           0.84900540173440   -0.36762955724569   -2.68489895257029
H           0.17610207316572    0.19020579124329   -3.08213686804848
O           2.91298807467453   -1.52897081667769   -1.11465915761103
H           2.36225404316261   -2.28616606893946   -0.90497127017669
H           2.67838724671815   -1.27226471829584   -2.01115412518103
O          -0.31070258718971   -1.70552226219981   -0.75567749136991
H          -1.10640481951578   -1.21282160286689   -0.46340107523399
H           0.35363256278222   -0.97831613030628   -2.06956302265732
H           0.31546869661322   -1.60504260571116   -0.02416749520278
O           1.38565161577284    1.07365367762786   -0.64379086039630
H           1.46223262115037    0.39414350173350    0.12385660717971
H           1.43740793396294    0.51567193791230   -1.49862733367134
H           0.34655211338359    1.36466455585236   -0.70044152804603
N          -0.63485113946513   -0.06691081342148    2.73099382343374
H          -0.97537240355927    0.80534945681912    2.31679176029974
H           0.62412822548064   -0.42282181778948    1.88962435502261
H          -0.61099239387888    0.04686473644440    3.73689697308469
H          -1.33997614590461   -0.75973202252633    2.50585858511567
