    26
        -50.43876712  Gyration_radius:  2.56299260574 Dipole_moment: 1.943
 S          -2.21749149372419    0.55036359002050    0.59347901426107
O          -1.94979543910724   -0.28201470819275   -0.59770981780053
O          -2.29641498691705   -0.25826605455371    1.78723191433871
O          -1.30999427958316    1.66716764224961    0.66637757815263
O          -3.66887308747109    1.14393444937235    0.35498063969202
H          -4.22091463760545    0.41388581820986    0.61663598868983
O           1.66070156201302   -0.57233338601745    0.85329970022857
H           2.39328874393639   -1.11218719572647    1.15289855543712
O           0.23628361108034   -0.23075645737318   -2.82056262689408
H          -0.69828938640058   -0.11902069740192   -3.00998376479779
O           2.79196729236498   -0.97188749419649   -1.82312689582914
H           2.25673337446647   -0.94343147893665   -2.62141250698776
H           3.00020048876841   -0.05921124807663   -1.61274608052462
O           0.03124142647939   -1.71052884250549   -0.74691253907356
H          -0.88571873083623   -1.16640176931849   -0.57186692077947
H           0.27118132440743   -1.32056225807838   -1.66074297677763
H           0.73267930602501   -1.32652709830485   -0.10028432939676
O           0.82951938239250    1.44469240241624   -0.89703465799893
H           1.34142055554404    0.89328175499058   -0.28785908639317
H           0.47143012058077    0.52151357265535   -2.20785304135232
H           0.01100643292733    1.65846374075199   -0.40145689563887
N           0.22413068731130    0.37674438821282    2.76981410588814
H           0.38291252314707    0.23545790990939    3.75984462241694
H           1.13618078284178   -0.23862282315656    1.67071533984272
H          -0.71263891367454    0.03192299122943    2.54195719485811
H           0.18925333102545    1.37432326181776    2.59231747643527
