    26
        -50.45634847  Gyration_radius:  2.6654771861 Dipole_moment: 5.753
 S           1.37193082552825    1.94838692576315    1.29083074184782
O           2.59048369794727    1.69408447189782    0.55264628851254
O           0.21767636124960    2.22965471419118    0.46889188532790
O           1.08610191354948    0.89047243600675    2.26808728549714
O           1.65570668570751    3.26218360120262    2.14824086997745
H           2.58472913411452    3.17627334781378    2.33961388604798
O           0.54935052671371   -2.27310046839480    0.01283644793205
H           1.30402973270411   -2.79414473487178    0.28985825322055
O          -1.04543272472064    0.16738286399186   -2.38220278840484
H          -0.93515400333112    0.45438104990708   -3.28898049967018
O          -2.08275690513627    1.05198430873654   -0.00642005174292
H          -1.36748053249945    1.69686943709620    0.18415043745560
H          -1.89949380172554    0.77674233891332   -0.92055605067487
O          -1.12513186163172   -2.52476800559988   -2.13839652103205
H          -0.47748247664318   -2.57915285460092   -1.41070826432215
H          -1.94877074520723   -2.88349708627891   -1.80466668957815
H          -1.07189510626720   -0.81308428288775   -2.39598806373286
O           1.42988437304439   -0.08283028211376   -1.00365015724019
H           0.93887283407148   -1.43201532497870   -0.38803956019668
H           0.66853504713589    0.37160890294167   -1.39280591546899
H           1.91386460558219    0.57827365384545   -0.46319915811644
N          -0.89432693112394   -0.60958063959240    1.62035620316109
H          -0.45583160193687   -1.38933788043610    1.09637019143287
H          -1.43023369697988   -0.94098333588596    2.41385320060745
H          -0.08681874126447    0.03079582431886    1.94954058369682
H          -1.49035660888164   -0.00659897098843    0.96033744546432
