    26
        -50.45592085  Gyration_radius:  2.62480257836 Dipole_moment: 4.125
 S           1.05837088853862    1.86798213236898    1.58288317811697
O          -0.05217888587871    2.73065908326087    1.21804387508760
O           0.72127670884256    1.01130780971318    2.72774416131720
O           1.57210767948015    1.10126437899775    0.47512665825731
O           2.22917415754016    2.81989603453920    2.07946868044739
H           1.79814099824044    3.37788663574309    2.72070075050494
O           0.01837062003583   -2.54742682682128   -0.00422073800810
H           0.38829982526560   -3.42161914839633    0.12035985271572
O          -0.00586835457643    0.10965394016930   -2.78436101606424
H          -0.14591611534303    0.44625237704745   -3.66949550099087
O          -1.27137679665101    1.13715545320360   -0.44963542315439
H          -0.88813033060595    1.87780676223977    0.07933439736508
H          -0.63788490851846    0.98362151365119   -1.17063382527458
O          -1.87007797537484   -1.51952595840080   -1.76675111854954
H          -1.29455082130469   -2.01357400724136   -1.15727405346584
H          -2.23966748567008   -0.78442981093475   -1.26796366688051
H          -0.70354025771425   -0.56311577150298   -2.61471435523676
O           1.81251082104392   -1.04350693836612   -1.05208374799090
H           1.89609853983273   -0.29131984293900   -0.43289251043552
H           0.75767579669671   -1.99087041496161   -0.42411565603473
H           1.38259163065433   -0.65259109798146   -1.82923532020628
N          -0.92117969013381   -0.55347722436475    1.53837592598692
H          -1.14660439647792    0.09003995643534    0.71632256194012
H          -0.50372939906811   -1.42443594195941    1.15138827677137
H          -0.20530869456496    0.00602114587930    2.12342928358021
H          -1.74860357434663   -0.75365424940043    2.09019930009718
