    26
        -50.44612508  Gyration_radius:  2.48613099746 Dipole_moment: 2.148
 S          -2.15359405709969    0.58153258183515    0.12913135532403
O          -2.38973356181800   -0.01355873245220   -1.19597832738193
O          -2.62493951614960   -0.25659963077302    1.20256412430882
O          -0.78089587594990    1.01243135640061    0.25385330819005
O          -3.03967899962754    1.90333308263920    0.16832922901552
H          -3.92714353946562    1.56506633838213    0.24068771598696
O           0.91276372638313   -1.92094416197537   -0.65641832809414
H           0.80496653547759   -2.83205499745964   -0.93229095785962
O           1.41762860962263    1.69473366440217   -1.89086198822598
H           2.05335250323861    1.77726464713776   -2.60426502682423
O           1.07507627820553    0.99814230276680    2.09883929857119
H           1.19560946850228    1.89851854069802    2.40406035271505
H           0.33039021841255    1.03181718715074    1.45335103995681
O          -0.18921010439740   -0.24021678274898   -2.25274990221801
H          -1.17448675883572   -0.09835650785683   -1.84014550580430
H           0.35227234089166    0.62879134101530   -2.11092964056366
H           0.25014573942357   -0.92725362330630   -1.63654140685659
O           2.59607121207960    0.27711301237036   -0.03151701092091
H           1.90098399231118    1.26887219458859   -1.12787816916655
H           2.17304181231965    0.53939476800512    0.81124069378216
H           2.22728329027889   -0.59269654829207   -0.23542649361297
N          -0.23891501689959   -1.68510540318924    1.63181918569954
H           0.43850239507569   -1.83193423877654    0.26313344686223
H          -1.14761595709367   -1.23731774360722    1.48875256555040
H          -0.38423432448791   -2.50966853255104    2.20124805198066
H           0.32235961951929   -1.03130410447036    2.16799237961411
