    26
        -50.44612508  Gyration_radius:  2.48604105212 Dipole_moment: 2.148
 S          -0.71389070289066    2.11264885623036    0.13639665104180
O          -1.33870375133551    2.13327984061738    1.43489210188020
O           0.68175885861020    2.57789822698469    0.17501176129156
O          -0.80894777157310    0.85258090296473   -0.56265293212503
O          -1.49442108919752    3.17544219298513   -0.75527596003229
H          -1.53944881434425    3.93968398692942   -0.18869006597893
O           1.60022759455158   -1.03275339887732    1.15147205169877
H           2.24470794387042   -1.01907704524018    1.86017335469240
O           1.09028099284645   -0.55485911771464   -2.63820426340178
H           1.77394583711506   -0.95798483936275   -3.17670102229981
O          -2.12814172617403   -1.39254043357461   -0.30047187301630
H          -2.79184639663568   -1.42816047986604   -0.99083479924837
H          -1.69462718736137   -0.51156360037841   -0.39116650275782
O           0.30114719936177   -2.40747031315913   -0.96463596217813
H           0.82324315194822   -2.15687068586692   -0.19083246217082
H          -0.62163671055148   -2.17975652539918   -0.73102419633000
H           0.69452173643607   -1.28738468221804   -2.08689464455952
O           2.05028781673851    0.72488776182035   -0.66388121200858
H           1.89644804924334    0.02644996548214    0.06635966260099
H           1.60937898583132    0.32670030257386   -1.50971084926588
H           1.47180650875695    1.57752592141714   -0.34819603653993
N          -0.68590521254447   -0.49437097021013    2.20109750459350
H           0.68243581402845   -0.80643444641729    1.58140249560433
H          -1.36902414665955   -1.05202581128915    1.69875301317228
H          -0.82559464404846   -0.65009487405171    3.19180495107920
H          -0.90800233601872    0.48424928562815    2.00180924419647
