    26
        -50.45634930  Gyration_radius:  2.66554212884 Dipole_moment: 5.734
 S           2.31371934943538    1.25400259036362    0.64236214937547
O           1.86541588372456    0.55430254042453    1.85297728200971
O           3.09709265969401    0.39754789242463   -0.22235165915438
O           1.21583673670002    1.92636802580204   -0.01307614457549
O           3.31316591977005    2.38867586463067    1.14528463568457
H           4.13392630709134    1.91089316182685    1.21505894237229
O          -0.42922111359019   -2.26420306567382    0.33275351878290
H           0.09419543310088   -3.03268852930329    0.56343065337991
O          -1.44155722716912    0.39320843507598   -2.14040152282560
H          -1.44916056413207    0.51787393992708   -3.08970946603916
O          -1.40485538875178    1.85757045665224    0.17273511690839
H          -1.58319483881032    1.44718806530196   -0.69033354695988
H          -0.46511493947166    2.13274583053471    0.10323861079682
O          -2.53778019620727   -1.96277837579521   -1.38782234768946
H          -1.80980246860354   -2.22603449199446   -0.79406930433980
H          -3.32722669052367   -1.89851223220753   -0.84834424477638
H          -1.86304176833065   -0.47488688124620   -1.96510406434375
O           0.98159883724171   -0.79567742261379   -1.23197692284588
H           0.40521258457610   -0.08273710826233   -1.54318663113217
H           1.80714739952914   -0.37575647609792   -0.90581821862857
H           0.15361738850833   -1.72217566596659   -0.29046522060326
N          -0.64154538255608   -0.00190604310862    1.83954111221158
H           0.40726447446125    0.25440885168225    1.90336448412388
H          -0.69083514895802   -0.93719389517933    1.39413869369069
H          -1.06381200397822    0.00077092537116    2.76063920901691
H          -1.08104525276135    0.73899360744938    1.19713490557299
