    26
        -50.45450931  Gyration_radius:  2.45194440518 Dipole_moment: 5.295
 S          -1.45209193295835    0.98488585384833    1.13402034668847
O          -0.12068118777096    1.21246732072654    0.60211081188289
O          -1.82048120140287   -0.49856174987148    0.96282364349154
O          -1.63796524991865    1.33254820689292    2.49613699106058
O          -2.45077639155868    1.73449206675025    0.22549478542126
H          -1.97012748676681    2.02260650371069   -0.60937171298156
O           1.53806899759268   -2.06594947052221    0.44498469364174
H           1.81632703894217   -2.94969426630166    0.68861067846446
O           0.25870701057466    0.19361652977267   -2.74992488658579
H           0.63270808875785    0.09695918889189   -3.62642993228937
O          -0.94526547755314    2.41797453200116   -1.74973914791935
H          -0.65497640835466    1.61643474581722   -2.22985003718933
H          -0.21372498039102    2.64103121391300   -1.16456267021471
O          -0.72738662112272   -1.65572998810482   -0.99673136050931
H          -0.50003646175507   -1.03054965142915   -1.70912786803124
H           0.11631991887683   -1.89847794484268   -0.56111063574748
H          -1.42952483433218   -0.94873578227377    0.12457202298936
O           2.00487700838783    0.35696245376888   -0.82419806402326
H           2.11973622395626   -0.53465353885902   -0.46242683589053
H           1.02270458029779    0.28138906032087   -2.11046532702467
H           1.36655551859140    0.78000409850105   -0.22350380065579
N           0.60033973069717   -0.79357576398339    2.59263440799987
H           0.50173104654438    0.13827802203844    2.20193909779018
H           1.22399673893034   -1.62082010635498    1.28478531169021
H           1.06680083143076   -0.70234935746174    3.48757729236559
H          -0.34583449969563   -1.11055216694948    2.77175219557623
