    26
        -50.45634920  Gyration_radius:  2.66548797301 Dipole_moment: 5.738
 S          -2.06694905038310   -1.00936113398466    1.43043037208510
O          -3.03805517572914   -0.19664237163543    0.72965089985688
O          -1.56003758374924   -2.10602474884020    0.59602894852250
O          -0.98598795897413   -0.26546158426157    2.03468264610570
O          -2.86568605900650   -1.70635223577107    2.62007099542491
H          -3.72026844217545   -1.85141544784844    2.22579855118102
O           1.21673138868723    2.27220926489806    0.41196509604307
H           1.12562872304849    3.20440317119591    0.61056810428482
O           0.20763423044558   -0.12430478650603   -2.31557178414990
H          -0.36806085378692   -0.36727999527746   -3.04174919364160
O           1.61445425642854   -0.11912174654204    1.68412967885470
H           0.70934857983356   -0.18580559991146    2.05836615698948
H           1.64423239811387    0.78480300855404    1.32764407715288
O          -1.20293217267076    1.15013119703578   -0.58874673758866
H          -1.93216361553180    0.69500019871236   -0.11417127684984
H          -0.59107154349269    1.48129241609009    0.08448437754458
H          -0.37965873464324    0.38388925785053   -1.66859357052554
O           2.12087259845105    1.82270340817606   -2.09826820412649
H           1.44253550344768    1.16133953772179   -2.33100089802756
H           1.55525941409605    2.20969647221651   -0.50637813217544
H           2.97037396609625    1.38356874226332   -2.16067426565135
N           0.84890153424511   -1.73943602436059   -0.21507670306990
H          -0.14922752575933   -1.95198325948796    0.14271605313588
H           0.73941217341080   -1.22940939940788   -1.11152705136319
H           1.29034960647932   -1.09834091836023    0.52572694503018
H           1.37436435312561   -2.59809739251457   -0.33050508504574
