    26
        -50.44529059  Gyration_radius:  2.4865946529 Dipole_moment: 3.291
 S           2.02662088839784    0.86335005456513    0.63078369250278
O           2.70245652727789   -0.34030884932533    0.11469844168532
O           0.80967218907238    1.09149730189942   -0.13265723659929
O           1.84402175382153    0.86907367636227    2.05065564847774
O           3.00079312737230    2.06976932700281    0.28360474994717
H           3.07565875202031    2.02593970572604   -0.66523043674665
O          -0.84777143205887   -2.02595704726476    0.43809616642767
H          -0.78952114080198   -2.88742178806718    0.85324272830374
O          -0.22139235858123   -0.08949626876977   -2.84733731285202
H          -0.50788008437326   -0.56899938272122   -3.62709297555140
O          -1.60953985431117    1.88762578313491    0.44947228277378
H          -1.70883199665768    2.77627990485546    0.10515155919737
H          -0.67235053690302    1.63113511495393    0.27215782027950
O          -2.24505917163828   -0.17558653639376   -1.19410178402163
H          -1.97797600164877   -0.92646133896939   -0.64683509463017
H          -2.15894208713242    0.60414701694584   -0.60898315988221
H          -1.02660420502847   -0.00023693980821   -2.26155984481842
O           1.05580893507033   -1.56996404855146   -1.21478892805985
H           1.81610887246199   -1.03610225671803   -0.65420183245985
H           0.30924013200898   -1.77070741454023   -0.54418458684396
H           0.64043012718323   -0.90894062855893   -1.88811174112625
N          -0.70986373449002   -0.26941992745825    2.30271567846499
H          -1.32609180134790    0.49050438945073    2.03249238921885
H          -0.78787694534234   -1.32194037564505    1.20433640803623
H           0.24044894886250    0.11073077307714    2.29180122278874
H          -0.93155890323324   -0.52851023518755    3.25587615549282
