    26
        -50.44529060  Gyration_radius:  2.48642861799 Dipole_moment: 3.292
 S          -0.51062875634927    1.55008973033554    1.60772192629691
O           0.09663220962719    0.25648174911417    1.33628182033623
O           0.19628266574298    2.58746459097983    0.83572242962124
O          -1.93425631246249    1.57801492335872    1.45969194953659
O          -0.19625076248318    1.87683880021495    3.13070147254057
H           0.75456887876256    1.83266855805051    3.17347248691820
O          -0.30333777724864    0.13860327049365   -2.21424427491483
H          -0.61638335925086    0.60479560604809   -2.99046234522866
O           2.80358988723782   -0.55072523425936   -0.02145399130483
H           3.59700850455905   -0.71602393741813   -0.53446913652622
O          -0.80907122177690   -2.17038592709221    0.99651460450976
H          -0.51155114091850   -1.24516112719503    1.17257589450489
H          -0.57360398815761   -2.67540831240867    1.77594176740259
O           1.47573473543729    1.43566509463563   -0.90422588893406
H           0.75830240075093    0.93920600078235   -1.43917648541431
H           0.94117316450199    1.97444082262783   -0.12879280180555
H           2.02914104555207    0.69554841999456   -0.44721119638315
O           0.97296140306611   -2.10924895939989   -1.04890990214965
H           2.13314603229661   -1.23189374418748   -0.31468469036332
H           0.31974623252475   -2.27589760523710   -0.33948594995594
H           0.53855134418756   -1.48240230112317   -1.64306931257275
N          -2.32108672384456   -0.21127431360802   -0.66901818921249
H          -2.25457017355125    0.48385757240691    0.07937100577567
H          -3.25869647990890   -0.17250079880733   -1.04873896986572
H          -1.13012810438853    0.00541436461097   -1.59375352338002
H          -2.19727370391766   -1.11816724292178   -0.23029868940934
