    26
        -50.44528997  Gyration_radius:  2.48710027209 Dipole_moment: 3.272
 S          -0.18389499407794    1.29520090596733    1.88162211379133
O           0.71889642804701    0.77190365241711    0.86851004644380
O          -1.22588053809902    2.10674556134338    1.22769223958118
O          -0.69077891667761    0.30912876215098    2.78734974943164
O           0.66408287556509    2.32503862361297    2.74508391928492
H           0.96421899604043    2.95875691559383    2.10004184011009
O          -1.62587055991038   -1.01820841482523   -1.15370950420636
H          -2.54698054418489   -1.24937553240560   -1.27934674327909
O           1.12952878039973    1.49737965056345   -2.15643438569486
H           1.12440267360259    1.70847932658459   -3.09208547073229
O           1.97001359477477   -1.49179950540330    0.50107593549616
H           2.90016264359729   -1.33436475275970    0.66881488668199
H           1.51041469619715   -0.64140004419838    0.70407775390635
O           1.06855657816472   -1.11304487200089   -2.02980762662552
H           1.47449336033669   -1.35909441526809   -1.17393470471798
H           0.11984570306932   -1.24818675525533   -1.90172965544629
H           1.23956492560232    0.50566964858084   -2.09308566641367
O          -1.20823199672617    1.50950112985131   -1.14634992464102
H          -1.39992361322974    0.50422438038388   -1.14349848502595
H          -1.22470301826536    1.81420139440721   -0.10565312450380
H          -0.23726688872456    1.59602186975357   -1.48286572390818
N          -0.91043964755990   -1.94446338160061    1.12882421666405
H          -1.34817120512399   -1.39760691501396   -0.22326878172207
H          -1.43664123752927   -2.69632202829771    1.55611400811946
H           0.05196111721057   -2.25143707686680    1.02985550742931
H          -0.89735920250481   -1.15694812731338    1.78270756997479
