    26
        -50.44529060  Gyration_radius:  2.4865141993 Dipole_moment: 3.292
 S          -1.31812725730113    1.78531189730872    0.57004211428611
O           0.00019027993616    1.35898183391134    0.12718052932801
O          -2.32137774212982    1.36526127983264   -0.42436146040492
O          -1.63773724264634    1.41710050093651    1.91600242198120
O          -1.31332253016480    3.37329169288577    0.51240613029241
H          -1.08439474419595    3.55981779850596   -0.39345825578949
O          -0.57265566285583   -2.15912154436896   -0.15833275087566
H          -1.21611251950242   -2.86421377939817   -0.07762162913826
O           1.05524523187726    0.32054386168036   -2.63568466146886
H           1.27555085875531   -0.08000249731367   -3.47891610578937
O           2.11861879157730    0.39016277672971    1.30991062781238
H           1.31002098781095    0.79657873132861    0.91424604048456
H           2.78561372823666    1.07798898571406    1.31040736936371
O          -1.26699845646726   -0.34220489025014   -1.82571134584050
H          -1.01383951489061   -1.07575868403831   -1.15850313175486
H          -1.75472187224798    0.42978606043167   -1.23974063041869
H          -0.36869683857080    0.03795480833349   -2.15950063623031
O           2.04150124411179   -1.28503071481345   -0.82320288101885
H           1.25142941810831   -1.80148113949766   -0.61408366128555
H           1.53750064187350   -0.20985378571108   -1.93885236029242
H           2.20223727565884   -0.73936401638939   -0.02686764759637
N          -0.34612468833917   -1.06454877591996    2.15076723560098
H          -0.62473378685027   -1.57491226396728    2.97944321826420
H          -0.87721688987895   -0.18991082568489    2.12522797532854
H           0.62958266206294   -0.80501614842394    2.25511275994642
H          -0.49143138390481   -1.72136115179646    0.78409070522580
