    26
        -50.44529059  Gyration_radius:  2.48675160383 Dipole_moment: 3.290
 S          -1.68711142065564   -1.20851521088565    0.97240499948221
O          -1.56098713844254   -0.40131255899441    2.19889399463673
O          -1.29505885391503   -0.40137110971681   -0.17242289988653
O          -1.04474073662104   -2.48589797275097    1.04335245851589
O          -3.24424575243454   -1.48092183890051    0.81078379199611
H          -3.61622465331271   -0.60545728847228    0.75618422248901
O          -0.84019932287363    2.68228740822299   -0.51422789264211
H          -0.62655831352931    3.61736225403329   -0.51029787793966
O           2.03074872010378    0.46627757512843    0.82122395561688
H           2.69599854702593    0.38903353544637    1.50622806511078
O           0.03980183349951   -0.84882781447210   -2.37313040300127
H          -0.58910578481086   -0.84002481655080   -3.09592072418537
H          -0.49282716447357   -0.73845770595212   -1.54869107329997
O           1.18680928107141    1.50943602293048   -1.67672481811276
H          -0.13924816206008    2.23692558731494   -1.07078546105604
H           1.68922584614704    1.23843089721104   -0.89648338427027
H           0.84395736492457    0.67509142912411   -2.05632131573698
O          -0.15222738404934    1.52270860559843    1.64682477404890
H          -0.54348038444130    1.96491427121022    0.80171556894722
H          -0.80042391282120    0.69561329870445    1.91695125855906
H           0.72629579212724    1.09585354229174    1.34118663910631
N           1.49792948074388   -1.90631444744424    0.00405045283986
H           2.16407027747433   -2.65301494849498    0.15717907158893
H           0.61020849798838   -2.18247064150475    0.43231095871693
H           1.82112334533058   -0.50283751448966    0.49974625378727
H           1.32626999800465   -1.83851057859095   -0.99403059529131
