    26
        -50.44300243  Gyration_radius:  2.54154078031 Dipole_moment: 2.804
 S           1.57232386856454    1.66932013567467    0.57789796133088
O           0.55784362410567    2.16364351002363   -0.37503180031120
O           0.93723037715073    0.88073765032814    1.61803009530476
O           2.67464480663756    1.02483170732821   -0.07628465929639
O           2.13078909797497    2.97090716533626    1.28811620034633
H           1.39270368116143    3.25442222687026    1.81916182623759
O          -2.64483294038636    0.93719816982564   -0.90870426881405
H          -2.86660376020293    1.86963847578977   -0.92788725716333
O           0.20970092640159   -1.80556243810965   -1.33212627757695
H           0.61753184977260   -2.30879730757910   -2.03819962613052
O          -1.85115506802832   -2.19311719209351    0.49869497521595
H          -1.15010029215355   -2.16879302155462   -0.17231822315869
H          -2.68324431496922   -2.12145572789861    0.02683438596160
O          -1.66520803336741    0.38369933187853    1.40929669376666
H          -0.71866665288070    0.61589571619548    1.51796305241065
H          -2.32032325033715    0.75199231275727    0.03078150639481
H          -1.69578088813731   -0.58969054288952    1.35829971218314
O          -0.39563567764505    0.60025957740264   -1.99404357879221
H          -1.37727695454697    0.70809195180445   -1.66354810209880
H           0.11936515889812    1.29335931683225   -1.33111934192064
H          -0.11668009854778   -0.34864918045015   -1.74713438406738
N           1.92125984783786   -1.55690300487614    0.54666871863762
H           2.40483687026385   -0.69400486259940    0.28262534385322
H           1.41804301280878   -1.32879870981462    1.39704830440641
H           0.91912397150068   -1.74153154334353   -0.56617461434553
H           2.61011081811686   -2.26669370683414    0.76115336762839
