    26
        -50.44606569  Gyration_radius:  2.47123141322 Dipole_moment: 4.363
 S           1.82379424737854    0.07474977837609    0.93769548323489
O           2.04118400518560    1.06644089968476   -0.13395491118785
O           2.33928426205632    0.48609808311768    2.20383861933140
O           0.46570296503421   -0.41407329664176    0.91734093247797
O           2.70084560361497   -1.20455988159915    0.46447506433582
H           3.56266298403313   -1.06957746120512    0.84852815427963
O           0.75278795533783   -2.03324377082612   -1.45206683903522
H           1.51489364561922   -1.96727744002739   -0.86065436981782
O          -1.62401873846914    1.47121461782000   -0.53844033510697
H          -1.91914623295142    2.29543950895355   -0.93069498504855
O          -3.09522151052206   -0.89641949286360   -0.57953131179256
H          -2.64385425862254   -0.04906831730075   -0.43743488979428
H          -3.28810097325358   -0.95823649336342   -1.51647297812975
O           0.37908600458104    0.39709117932301   -1.82337346255643
H          -0.46180907556788    0.70339056489273   -1.36343814054940
H           1.14607444148197    0.73898399353061   -1.16970587983114
H           0.46948844022322   -0.67862947551833   -1.72983145978616
O          -1.07897078803646   -2.53134617669795    0.31187478599479
H           0.00380894804216   -2.35519274118403   -0.86146055189267
H          -0.61217634358350   -1.86100104733666    0.83743720217153
H          -1.91806403135497   -2.10682893460645    0.05594665201874
N          -0.07998643794991    2.27661371870963    1.45261203368437
H          -0.02964203991867    1.47351026891079    2.06927057115520
H          -0.17129066122829    3.10732821341300    2.02601093528581
H           0.82243251125725    2.31051897667537    0.98805838738207
H          -1.09976495237599    1.72407471575064    0.28397129317615
