    26
        -50.44606550  Gyration_radius:  2.47085322999 Dipole_moment: 4.351
 S          -1.45501901599514   -1.37671237436493   -0.44178447004991
O          -1.76715150610999   -2.72597176129235   -0.09506483345413
O          -2.25492168094931   -0.38105510744499    0.29819714437062
O          -0.05782750981739   -1.01371639750382   -0.44440299875082
O          -1.91003111897398   -1.16939575473821   -1.98457186551078
H          -2.64179350808534   -1.76719553897792   -2.10938826111166
O           0.82583866181224    0.96499831646377    1.86581091321273
H           0.71032322127589    1.43450898810868    2.69436619126462
O          -0.30820558495730    1.17173005661936   -2.30983501632946
H          -0.88241234188600    0.40497755461219   -2.44125196593300
O           2.97693017807803    1.35311975784208    0.13512319181563
H           2.94238708103984    2.30604435553194    0.03739326745673
H           2.30667151152816    1.11039048743395    0.79366520905338
O           1.94267041723832   -0.06714675448689   -1.97303009626409
H           2.49182094459906    0.40681834159641   -1.32216751150230
H           1.40851769522362   -0.68334332844815   -1.44532597372034
H           0.62278785937296    0.78891424278242   -2.29681666599230
O          -0.91328569386093    1.66920792493645    0.05032463969963
H          -0.59408919885264    1.53663793110316   -0.97667322392372
H          -1.57397762206212    0.84565099409977    0.18216834710726
H          -0.15109768429134    1.44753733241069    0.66885136541968
N          -0.38591381224055   -1.34331138013390    2.31360814453892
H           0.45653280491778    0.03941552704790    2.01413458305563
H          -0.45998810306651   -1.85921210493632    3.18287790208896
H          -1.32509760905116   -1.12716568019065    1.99318714936283
H          -0.00366839489844   -1.96572562805907    1.61060483409760
