    26
        -50.46151552  Gyration_radius:  2.41375219265 Dipole_moment: 6.714
 S           1.12486003988561    0.73503961351510   -0.30838461889181
O           2.54388108735286    0.69403168518497    0.02885891351672
O           0.77453121812615   -0.34578935607335   -1.23953044320469
O           0.30893720855677    0.61004816314259    0.90836836064983
O           0.82959518546389    2.07527258585009   -0.97069148569601
O          -1.70597001612211   -0.38771296226547   -2.06746336579624
H          -1.73937974075970   -0.62794090299815   -2.99436222306921
H          -0.75518611909704   -0.42204452908316   -1.80309118269065
O           1.59090605165356   -2.60052908676379   -0.17614211778344
H           1.21439004014661   -1.81199642279522   -0.63981631538991
H           2.25824635499919   -2.95557763137883   -0.76607727651854
O          -1.98515817830726   -0.89906757679843    0.72134973404326
H          -2.17627538753621   -0.97926071243272   -0.22002434620470
H          -1.10535701526274   -0.49095057150897    0.76922586772774
O          -2.16798784742824    1.79993910302336    1.33264066217690
H          -1.21991088924390    1.65194667478539    1.46161720422815
H          -2.53994262886841    0.90265080985904    1.30474675879356
O          -1.66516397198506    2.20224054772778   -1.24472741691663
H          -0.19632974475330    2.18714325546102   -1.11199205970238
H          -1.88181397029673    1.32044223877108   -1.60578962636454
H          -1.98877575409352    2.20107737625338   -0.30955106679527
N           2.12030472203942   -1.00202885333058    1.84212104208579
H           1.19775029410436   -0.54715736920978    1.97405139332218
H           2.57225944054761   -0.27301840910696    1.17215450481955
H           2.61943436258775   -1.18351762502333    2.70630793889133
H           1.97215524830971   -1.85324004477619    1.23620113480476
