    26
        -50.45437240  Gyration_radius:  2.50785125948 Dipole_moment: 3.459
 S           0.56656201213483    0.79623247483221    2.01685559377921
O          -0.38719555980017    1.34479208079166    1.05927244990922
O          -0.07275475073387   -0.18714728773277    2.88787670256734
O           1.77185787878338    0.32057225663670    1.38332671738615
O           0.98990652406855    1.98638697629769    2.97320838324707
H           0.28976228258805    1.98919753313013    3.61836736412813
O           0.75499323483078   -0.49340155391899   -2.39225567292491
H           1.36374636747909   -0.60880880482175   -3.12268978302432
O          -1.07069513617814   -1.89663874418166    1.35312134964292
H          -0.70901724163021   -1.29962026226031    2.11142111374016
O          -1.94927997379855   -0.56914729043274   -2.36796123282962
H          -2.19640322672527   -1.44791508431238   -2.65999026409929
H          -0.97685626786369   -0.50853835256022   -2.44600506838736
O          -2.40834319935077   -0.13426473006799    0.23104267041887
H          -1.75253429334741   -1.23064500631996    0.84784366117319
H          -1.78137174609832    0.57183158053480    0.50495559094441
H          -2.33218126631796   -0.21114764007521   -0.74790230474852
O           1.03238835375807   -1.79424920253578   -0.02136952649749
H          -0.23738953692588   -1.99470043451175    0.73239231313614
H           0.91827401558854   -1.42968482707317   -0.92177282615275
H           1.45859804149343   -1.07816935668980    0.49978044005691
N           1.38538433795561    1.68438860554529   -1.10269529258888
H           2.23170305573632    1.47772652846711   -0.58332421792759
H           1.47355028135596    2.60997241436037   -1.50309108730752
H           0.99204230016982    0.39100980199439   -1.95078116025343
H           0.64525348283252    1.71196834495132   -0.39962591337451
