    26
        -50.46875462  Gyration_radius:  2.49833387474 Dipole_moment: 1.324
 S          -1.29315313743625    0.98236113229484    1.42705293474806
O          -0.32686816816121    1.30257562903847    2.46603077933675
O          -0.83836970276271    1.44808341892318    0.11894203279060
O          -1.69784845150851   -0.40532728923343    1.40966974912697
O          -2.59815021508333    1.81625427055357    1.77088222413624
H          -2.25645611812888    2.66237131676154    2.04319664229888
O           0.41476289967316   -1.98237956107537    0.92984378653154
H          -0.41693608800509   -1.55064501041792    1.21203156847449
O           1.49129957280354   -0.06182076287254   -2.73307159351597
H           0.93404091355169    0.36524387905119   -3.38612660067632
O           1.74656371111719    1.58288240936550   -0.60513283668794
H           1.78556378859190    1.02676803245219   -1.41190737656703
H           0.79470371890297    1.71850097857813   -0.43074219367139
O          -0.19109434374229   -1.97073597439612   -1.74824193554241
H          -0.98346124254119   -1.37680708532033   -1.60488726707970
H           0.97819679413958   -0.81534819601347   -2.38495052836228
H          -0.51145337656234   -2.74951164906058   -2.20493747136564
O          -2.18703035306478   -0.37233182818090   -1.21933087043993
H           0.32649044672018   -2.09282746125269   -0.03469511029267
H          -2.46576720526204   -0.70458095468168   -0.35359145327352
H          -1.70994721573981    0.44461098187522   -0.97088644021269
N           1.83715909602773    0.13768906508591    1.55661696993282
H           1.06559621836976    0.64079970872007    2.07216255922848
H           1.99221559057917    0.70638911069038    0.66041576088691
H           2.67711691325250    0.05929908712167    2.11849644700343
H           1.43282598426265   -0.81151323801470    1.30316021319410
