    26
        -50.46151545  Gyration_radius:  2.41373448879 Dipole_moment: 6.715
 S           1.19294840506041   -0.29877672886797   -0.62251192212444
O           1.06490595524808   -0.56222188935657   -2.11795818732729
O           0.20250957905978   -1.11425628511377    0.09575777462627
O           2.54346475734258   -0.66316827656029   -0.20756830941926
O           0.92886019331192    1.12289195314566   -0.36349941518530
O          -2.24818808239914   -1.95569040586689   -0.91254982231425
H          -1.33773674916347   -2.04985933929957   -0.59690505772225
H          -2.65607532703365   -1.35679687854280   -0.26514743168513
O           1.46877969031164    1.57577228232758    2.16328168169834
H           2.19657301075619    2.19989776576650    2.17994578408264
H           1.20353215521161    1.49766236977800    1.21349009570144
O          -2.11129953847192    0.14916596626197    0.88814929328325
H          -1.22887096540983   -0.21251051061146    0.70554693223489
H          -2.16649018467253    0.95816508762562    0.36701231691407
O          -1.40209175803347    2.01829977342206   -1.14167191415604
H          -0.50336464326483    1.74770159993704   -0.83483839333945
H          -1.31077379097914    2.89891899841757   -1.50789415170300
O          -1.35365172074342   -0.20707132192544   -2.70109734613519
H           0.07763732316056   -0.42985035127055   -2.42196575730482
H          -1.81037352593546   -0.91727582976621   -2.18494995972292
H          -1.55857450569480    0.63202884969574   -2.24414502705798
N           1.77559209025239   -1.03469226931329    2.16223673310706
H           1.67571568541459   -0.02698801867613    2.45903865645298
H           2.13309950365903   -1.65156645751602    2.88373009395702
H           0.86737573056643   -1.33434451645548    1.76125604651185
H           2.35649669247994   -0.98543554720317    1.24325728656328
