    26
        -50.46875465  Gyration_radius:  2.49826644598 Dipole_moment: 1.322
 S           0.70945776606960    0.26715661263128   -2.02450883888489
O           1.05878848804013   -0.76539134842736   -1.05155564265785
O          -0.49205212931341   -0.08885043916428   -2.76295929766094
O           0.66805521334745    1.58780823727059   -1.43787742596146
O           1.88519261610726    0.29616694528335   -3.08909578466030
H           1.71127254987834   -0.46525998236504   -3.63389783283920
O          -0.01515789929210   -1.55522005818175    2.69752826464903
H           0.87531367089659   -1.87006441752333    2.86298948112692
O          -1.33499429491287    1.75250671496310    0.33429509572999
H          -0.64256366672306    1.87434951751028   -0.34654271837728
O          -0.74732950548364   -2.30671098185981    0.20825554422165
H          -0.56548460440969   -2.13952242219443    1.15729805152768
H           0.01224759006589   -1.92262454447593   -0.27168972120018
O           2.29735832962905    0.89842226549286    0.56754161366527
H           2.01112775850170    0.09193858163994    0.09388035996589
H           2.04090451962333    1.59160899636801   -0.05799538834687
H          -0.84835147450213    1.55867363984282    1.15646490515095
O           0.40931545966460    1.11858472413743    2.35781839861785
H           0.66939054454026    1.75254189421322    3.02727245155660
H           0.04377631405089   -0.58289438261516    2.63983131479667
H           1.17806558660888    1.04219263274552    1.72196600905064
N          -2.22448490021197   -0.43158018732506   -0.82709648145309
H          -2.03456817251209    0.44882589572199   -0.26354012294342
H          -1.78297119942229   -1.27233424109347   -0.32828077204384
H          -3.21233127206110   -0.56312697764162   -1.01209589532942
H          -1.66997730818711   -0.31719668493651   -1.71800554768595
