    26
        -50.46846775  Gyration_radius:  2.39954253661 Dipole_moment: 5.639
 S           0.72984640114529   -1.34339215159971   -0.98801581743094
O           1.33116135491223   -1.10182282559784    0.34619174305324
O          -0.16828187186142   -0.24110215353617   -1.31305516486074
O           1.73215602973247   -1.54979469068079   -1.99807149798581
O          -0.13553720833695   -2.63229110318910   -0.85166183066578
H          -0.88807888695470   -2.39209215092238   -0.25917256648903
O          -0.67835689886402    2.04582764394983    1.25802649524356
H          -1.07682240763128    2.89036170784098    1.47151488573427
O          -2.02477971815361   -1.95566003319997    0.89864931603542
H          -2.29864413256297   -2.75902242178657    1.34464097415665
O           1.88964931400509    1.03454938695815   -2.55737212014209
H           1.99496024864872    0.05859414101039   -2.46919671716124
H           1.00037519578091    1.13372605041518   -2.91079124297000
O          -0.32647053426668   -0.59080884440833    2.33760687328124
H          -1.44581086327600   -1.45817990384445    1.54213846805847
H           0.38647667283382   -0.84889322887432    1.71324052266773
H          -0.45595016200371    0.35802538726792    2.20264146951521
O          -2.33537011842165    0.65997503749925   -0.18687326858285
H          -1.59986545980529    0.33865892357019   -0.75683376258761
H          -2.66119848110997   -0.14153704900896    0.23895230154462
H          -1.35789285872227    1.55224660254183    0.70773499111677
N           1.69124418515847    1.42604253356389    0.05666534832422
H           1.75302454682039    1.44860819815445   -1.00428623418665
H           2.49565097553137    1.86835855049304    0.48898761487316
H           0.79716419591908    1.82554113028196    0.41336292697737
H           1.65135048148625    0.37408126309537    0.27497632247696
