    26
        -50.46070901  Gyration_radius:  2.43539310939 Dipole_moment: 1.968
 S           0.37767365003194   -0.21124481608541    1.10416319310449
O          -0.94578801398478    0.36338584673804    0.80750263213594
O           0.17232943592179   -1.21074478583347    2.28231564463061
O           0.82378587186258   -1.02140275746665   -0.03050043448133
O           1.33319570048287    0.80317453803318    1.46754885379596
O          -1.89808355233153   -1.66316660699235   -0.49880150752314
H          -1.20138277849323   -2.29970217660129   -0.31161618436581
H          -1.68609670388948   -0.88941131162886    0.08343931025085
O           1.96949066556974    1.07974483003156   -1.26983020383346
H           1.70674002167452    0.32609934007289   -0.70739351400387
H           2.39280826111942    1.68882640914313   -0.65998128776078
O           1.12610458552853   -1.37496629779813   -2.65193755335157
H           1.73960424202621   -0.65294438391762   -2.82515795220497
H           1.12055981563023   -1.47145295529929   -1.67855265795747
O          -0.66033539415107    1.60776270248547   -1.48616792549240
H           0.32057309420752    1.61625521793788   -1.53898563809062
H          -0.86170989582796    1.30497918165324   -0.56812703238643
O          -1.26445446967975   -0.50491875027593   -2.66233290777169
H          -0.32619548152493   -0.89879243392682   -2.81342614764848
H          -1.64455585090502   -1.03724961834395   -1.85609676524493
H          -1.07964392640160    0.46929045514541   -2.25194719631777
N          -0.35085618861275    0.87999173934403    3.75240751213634
H          -0.06983784332205   -0.61152956083801    3.03968664190997
H          -0.22141454004022    1.20861932973319    4.70104844901163
H           0.37080894731786    1.28293863707219    3.15956278257752
H          -1.24331964220456    1.21645823760924    3.41317988887681
