    26
        -50.44612489  Gyration_radius:  2.48575876513 Dipole_moment: 2.141
 S           0.96233632363834    1.42121620304422    1.42859504304950
O           0.34903946755799    1.24232757378197    0.13333088281048
O           0.04658958194127    1.39129671412295    2.54097002417611
O           2.08834499704142    0.48940168822567    1.59935233427438
O           1.60844019017001    2.87595095879786    1.41734050509022
H           1.85597270470280    3.00767501907964    2.32755892615367
O          -0.26460234162035   -2.20289139660163    0.15738323326259
H          -0.18574525498978   -3.00810004636963    0.67043549146793
O           1.41268109572612   -0.02445410861879   -2.54232420149786
H           1.77290880010988   -0.52424613249412   -3.27739689031994
O          -2.07060297057047    1.23801925274984   -0.86341680488672
H          -2.18159518736263    2.04113397782975   -1.37433445033224
H          -1.17594751306189    1.30269334727992   -0.45394670915636
O          -1.04348255525912   -0.87420922343387   -2.22631353711176
H          -0.90252914427356   -1.50552926319513   -1.50814741136262
H          -1.53296156807147   -0.13187416647768   -1.81733487364126
H           0.44026884779038   -0.24727671894541   -2.49720352543687
O           1.98993058760024   -1.06279396979522   -0.29612866201219
H           2.09583430126894   -0.36162484985813    0.51475862158101
H           1.10474742828544   -1.53883087651073   -0.11044798438563
H           1.82768474554634   -0.53046571593585   -1.16730085707381
N          -1.70033962917327   -0.57100329552789    1.53340668178457
H          -2.26363047120273   -0.05327456844656    0.86664552971300
H          -0.83792263162159   -1.54671462742883    0.72240851345053
H          -1.07600311338753    0.10870233694517    1.97497861731932
H          -2.31941670078915   -0.93512813221709    2.24713149309560
