    26
        -50.44612485  Gyration_radius:  2.48561024339 Dipole_moment: 2.142
 S          -1.64271602644416   -0.04125042856761    1.51185659324959
O          -2.36343860041885    1.16755163957767    1.20140670766148
O          -1.03111716767360   -0.69128938458695    0.37635610646104
O          -0.65856060072263    0.14916600966563    2.58911894756553
O          -2.71450064397387   -1.06770045449915    2.08736805707118
H          -3.19558312052103   -0.54315391450876    2.72032383331671
O           1.73115573225137    1.38563379212138   -0.17174126581106
H           2.19296033779680    2.16925169145390    0.12903605927630
O           1.55878333642639   -2.45362329661315    0.10082842103657
H           2.41593233025650   -2.88364860008979    0.08563441873098
O          -1.14901901889823   -0.51126280796379   -2.23166183817567
H          -1.61810359248824   -1.27965501379400   -2.56014290924473
H          -1.17799923715219   -0.58022700153066   -1.24842560419018
O           1.53381026045855   -0.82060358298579   -1.94558256716843
H           0.59262965375103   -0.71552947375223   -2.19257585953700
H           1.76654221944494    0.00240202900666   -1.49532895224950
H           1.49007585175372   -1.92775064238529   -0.74531959437330
O           1.52487235578095   -0.42714341222940    1.63355780076066
H           1.62639844404738    0.30542905558685    0.92802529854182
H           0.57498522321391   -0.22498507193537    2.09927036005768
H           1.44277235660790   -1.30533951273013    1.09446029358709
N          -0.64918493432064    2.11582545482443   -0.81794006434496
H          -1.28182770071337    1.85018884227919   -0.05897964982991
H          -0.91247056397701    1.55451596625492   -1.62140606581372
H          -0.82560707906260    3.08657582757456   -1.04547530908039
H           0.76921020457345    1.68662227982975   -0.42266321749757
