    26
        -50.46365341  Gyration_radius:  2.41765079593 Dipole_moment: 9.110
 S          -0.12699527177751    0.96552408115652    1.72923765572311
O          -1.26325322785595    0.09777378173122    1.31307500619166
O           0.75213979360288    1.18997051206713    0.58231674513759
O          -0.55730371071841    2.14442348515241    2.39804930820901
O           0.70386550144229    0.07303324143889    2.72549074267481
H           1.02983116285195   -0.67429497781979    2.19140783893601
O           1.63824247504498   -1.96885715866450    1.13848534065703
H           2.38729864682103   -2.36691603093454    1.58448345746873
O          -0.01305466171193   -0.55172923536209   -2.49061253735735
H          -0.32514766707534   -0.63390839241251   -3.39226169406948
O          -2.41247628342082    2.24617239038779    0.19847092905546
H          -2.09910456231616    2.91941188315956    0.80953701645096
H          -2.19614561233772    1.41092977587120    0.64504777559872
O           2.30742350839584   -0.40553975756934   -0.80948197522259
H           1.75612157538879   -0.51384130294287   -1.59617325024430
H           1.89546461463470    0.34062424220044   -0.32274798569974
H           2.01386217896168   -1.41203025390305    0.39121006090960
O          -0.48310472170221    1.83619447537024   -1.65515208255187
H           0.09731349715457    1.77339672544863   -0.86846993303585
H          -0.21781599053233    0.40013508725634   -2.21317052054893
H          -1.35114708692963    2.05248973147394   -1.26318384727353
N          -0.71362287855938   -1.81763445498269   -0.23897585905796
H          -0.99320493848476   -0.97338969247306    0.42495257971123
H          -1.47373358884633   -2.48559632390564   -0.30035173251974
H          -0.47591216874895   -1.41423500021620   -1.17807087191976
H           0.12045940672269   -2.23210683152376    0.19688784277952
