    26
        -50.45450023  Gyration_radius:  2.5067840603 Dipole_moment: 3.925
 S          -0.46076009469504   -0.86641177191000    1.98854991348305
O           0.00704424307277    0.18801906228381    2.88416052087761
O          -1.73398956541267   -0.54064030278264    1.37546899627117
O           0.54287910056531   -1.26118255652689    1.01969717866836
O          -0.70174806707774   -2.13183577842595    2.91221725721444
H          -1.14076889913799   -1.75644718230673    3.66916604062979
O          -0.73092096656261    0.38960598690942   -2.41132577217711
H          -1.33558567563232    0.45170727094180   -3.15155781650545
O           0.89186105885184    1.98091168289591    1.37814653966669
H           0.58037446538003    1.34635220302295    2.12885148281248
O           1.94291334763411    0.81968306541489   -2.32822340381406
H           0.99022353203641    0.62431891931231   -2.42207231693851
H           2.06797932846476    1.72794127201054   -2.60755516440277
O           2.45685329852955    0.40648036476833    0.26500667382123
H           2.37607322898920    0.49020971635748   -0.71296006623908
H           1.65890900364222    1.40544967730109    0.88743814948548
H           1.91710725406042   -0.37168825900342    0.52066113353323
O          -1.16399743625860    1.62163617394820   -0.02322571281095
H           0.06525151307539    1.97653735927488    0.74109683699084
H          -1.00331481932005    1.27730125328059   -0.92407099117729
H          -1.51841219583167    0.86152133735689    0.49165154449794
N          -1.17456538459619   -1.84265436601395   -1.13243498770237
H          -1.16989767218462   -2.77671213469958   -1.52265432920981
H          -2.03873225725862   -1.71467523960520   -0.61706715699068
H          -0.43697409164889   -1.78947743805793   -0.42838790282907
H          -0.88780225866337   -0.51595032575688   -1.98057661715804
