    26
        -50.45476408  Gyration_radius:  2.47356090601 Dipole_moment: 6.130
 S          -2.23222330902379    0.03871453296152   -0.70748873550812
O          -2.14922876114920   -0.08886435984174    0.76428435972839
O          -1.08286005231693   -0.69890698570671   -1.29838820800090
O          -3.48638549994150   -0.34255712123707   -1.25432294602442
O          -1.97749772712364    1.54291905591592   -1.04614077331084
H          -1.08324319824823    1.78785892269446   -0.72081402865001
O           1.54274522311712   -0.74935151697031    1.81323060671521
H           2.08131619957739   -0.83182647189900    2.60073584318090
O           0.42564379136464    2.33938512214453   -0.23411168780205
H           0.65559193937850    3.14329075922036   -0.70165066715705
O           1.23876121373129   -0.83733672612715   -2.55730807509672
H           1.16907703101244   -0.50709117690622   -3.45391951794950
H           0.33590784944459   -0.79454307381243   -2.18065792647550
O          -0.22436713113305    1.11650750470303    2.12673214345766
H          -1.03967792879032    0.73488888048591    1.73200729512072
H           0.89948928287339    0.00732768751157    1.98952750594809
H           0.03500015005274    1.81509548823663    1.50811406740735
O           2.31802784207445    0.58773569872650   -0.54421116448968
H           2.21942902369888    0.02036168961189    0.23533820004934
H           2.05492810055240    0.04011566421140   -1.31266084314653
H           1.17715404308131    1.69221477471943   -0.39071183039528
N          -0.55341639485671   -2.06045300349216    0.75238223855309
H          -0.59208249421396   -1.70603489519500   -0.26330609618991
H           0.34957675741462   -1.78243629473828    1.19008318301104
H          -1.32316821920992   -1.41939300650518    1.10324631431862
H          -0.75849773136832   -3.04762114871051    0.85001074270638
