    26
        -50.45476409  Gyration_radius:  2.47355803478 Dipole_moment: 6.129
 S           0.08683185415630    1.83278153600329    1.45533993291234
O           0.13179809220316    0.56035706462254    2.20907909438713
O          -0.78373326158538    1.63164438479122    0.26536920797039
O          -0.28149866520990    2.95942428718520    2.23784695434963
O           1.52161165571459    2.07079780357503    0.88355118825111
H           1.74997712979711    1.31908246869213    0.29336192341743
O          -0.61769785959783   -2.41031044985964   -0.19526825224763
H          -0.63715051373479   -3.36772586991415   -0.19959904414131
O           2.26498714269817    0.11150467318406   -0.75272254588864
H           2.99192651940059    0.42359017834875   -1.29299903733705
O          -1.20963257262770    1.36969085624134   -2.33155252206100
H          -0.98536650423676    2.17236297999860   -2.80404546319816
H          -1.06841946873834    1.56424187741408   -1.38231325614353
O           1.37450150815682   -1.56036187253870    1.22289796209059
H           0.99775858974936   -0.80442615318883    1.72566388958729
H           0.19172060937043   -2.14720317717857    0.34606072305701
H           1.97722501004020   -1.14680086494208    0.58753094205686
O           0.37892301526423   -0.80346013937770   -2.28602276018233
H          -0.23996653516666   -0.05717014204734   -2.42623400893207
H           1.56003987784326   -0.22099486673330   -1.38566596602886
H          -0.08420190793946   -1.43105511876062   -1.71071836561987
N          -1.91889885370143   -0.45075825754861    1.11066186370191
H          -1.64491070248465   -1.29800000248055    0.57087359606145
H          -1.19568270336067   -0.26932647385945    1.86599188831953
H          -1.68688049700477    0.43477347090556    0.54423228147775
H          -2.87326096899930   -0.48265818253347    1.44867976413649
