    26
        -50.46548013  Gyration_radius:  2.52066750167 Dipole_moment: 1.486
 S          -1.96721606578615   -0.54180004605765    0.36014838679667
O          -2.44349336151889    0.83159258120450    0.47935993452272
O          -1.41017538480788   -0.80724573581566   -0.94686885109756
O          -1.07618794888713   -0.91141219619198    1.44850903665643
O          -3.23562891063767   -1.48159645889301    0.51066646900984
H          -3.66999438180931   -1.34897401300640   -0.32519419181818
O           2.44488217993176   -1.16349814018528    0.13682901317369
H           3.27452929204868   -1.60836394614937   -0.03986000640550
O           0.51138960794127    2.33206198572061   -2.14787474458627
H          -0.16694959599276    2.39746185220707   -2.82184091240271
O           1.09033608808516    0.63007426113719    1.74559938912454
H           0.31311953544474    0.03924507174417    1.81805765321156
H           1.73585791255919    0.13225494030825    1.21778996829709
O           0.56096509064654   -2.88245563038228    0.87464261342317
H           1.78707685106443   -1.86611062504346    0.36447253819473
H           0.63287253888649   -3.34493779184606    1.71184604339857
H          -0.13851862845099   -2.20255292836308    1.00659046705586
O           0.97265739659002   -0.21810058004013   -2.01549416572895
H           1.58573537571093   -0.50403872252103   -1.31823777053611
H           0.09111346603608   -0.51885003696716   -1.71904830617985
H           0.79758599744376    1.37273652112102   -2.15668414186191
N          -0.33656166715833    2.35873871883050    0.36328401220471
H          -0.45694444169984    3.27764676998163    0.77526913500629
H           0.35732503605301    1.78264028079028    0.92577437384623
H          -1.24956901766718    1.81357815567349    0.39218664159427
H          -0.00420694404185    2.43190573275940   -0.63992255489420
