    26
        -50.45437089  Gyration_radius:  2.50781448699 Dipole_moment: 3.501
 S          -0.29411541462840    1.44015807561274    1.69284967581210
O           0.30635862591825    2.64728088139009    1.13055392565248
O          -1.29633454217485    0.88604796927761    0.78908119758564
O           0.66676555056117    0.45436904804708    2.12279415720750
O          -1.06678790275687    1.92159921569764    2.98945141286157
H          -1.40487822422763    2.77113751549519    2.72391060890980
O           0.65181027260456   -2.36965223943574   -0.69983748773118
H           1.00345291295126   -3.25559007395968   -0.60534420034284
O           1.22071413083063    1.97054258146804   -1.10046901584249
H           0.92140707878330    2.40071054702171   -0.21281419662839
O          -0.59774783057160   -1.22139720336225   -2.80710804905214
H          -0.18113304572510   -1.70200747422914   -2.06492531929102
H           0.02820245834512   -1.23584056076053   -3.53278013321773
O          -1.03505079061470    1.22385353210109   -1.81429116442708
H          -0.99279574583055    0.32867671366116   -2.22265509060154
H          -1.32972594240862    1.09303470561641   -0.88543512582545
H           0.27834297537830    1.68805622732959   -1.54208683594757
O           2.06762285368075   -0.14537587067926   -0.03860428695927
H           1.68185810413072    0.02591805291904    0.84897258945225
H           1.63841852797793   -0.96488101008521   -0.35628106721081
H           1.67296687578699    1.08717504799317   -0.77672889382260
N          -0.86370550040734   -1.83861406806841    1.35561895113706
H          -0.24176312985800   -1.69112613853001    2.14296772827259
H          -1.65413587703995   -2.38719804566289    1.67022837471166
H          -1.20203659511883   -0.90721266521927    1.10891182899488
H           0.02229015440283   -2.21966477362808    0.08402042630099
