    26
        -50.46254926  Gyration_radius:  2.41947695365 Dipole_moment: 4.382
 S           1.24399515839006    0.91856798102254    0.41939887745090
O           2.21903722398461    0.18109591196653   -0.39404110533464
O           0.13494653229988    1.36563234866548   -0.43248042041651
O           0.78320772737301    0.15366688602257    1.55200122994651
O           1.95373785734852    2.19266451034588    0.96457000932621
H           2.23306519825786    2.64516390655133    0.14148443162584
O          -2.37055022772792   -1.52078353389288    0.26838830208962
H          -3.26545214429647   -1.84318979924669    0.37947268163750
O           1.17514078855819   -1.97910157344003   -1.10229190496743
H           1.74703274536482   -1.15396009021927   -0.84737952668979
O           2.22038899271545    2.64559539850336   -1.61139705525480
H           1.27722031925178    2.42803441620396   -1.59408649553906
H           2.67248283930429    1.79644202696012   -1.68686409563849
O          -0.84406476440957   -0.67670001653540   -1.82028871382240
H          -1.53624018653765   -1.02326778008193   -1.22440494881419
H          -0.55225478741268    0.16957722071438   -1.41367816143212
H           0.34240149143042   -1.53712220999113   -1.56623869371203
O           0.08508547498521   -2.35137413152766    1.11326335126928
H           0.37869619754193   -1.48311055124239    1.47158403572866
H          -0.86081873596089   -2.23150290189926    0.89839133827409
H           0.78065471105696   -2.30407789228333   -0.17064530627178
N          -2.00708760579918    0.82691856711838    1.39034326488343
H          -2.31642671422377   -0.62502429479653    0.72934845779081
H          -1.34645531349857    1.20363736662735    0.71075030180758
H          -2.68913632591913    1.54565799928901    1.59890668012344
H          -1.45860646207790    0.65656025516660    2.22589345594120
