    26
        -50.46407466  Gyration_radius:  2.47240794959 Dipole_moment: 3.325
 S           0.35886439749402   -1.14705609700146    0.21185618028436
O           1.14947316893008    0.05919535377846    0.49510764720927
O           0.74898675397379   -2.26403691577980    1.02951456553827
O          -1.13796102124791   -0.77077970802729    0.54347234460316
O           0.30778376780538   -1.40075423554551   -1.22159989406738
O          -1.36083871597291   -1.03769023481266   -3.42992294147538
H          -0.76078484068098   -1.39818895777288   -2.75903037532174
H          -1.75676397215188   -1.79333337862324   -3.86560400063001
O           2.07892416120801    1.12929119650310   -1.77376768679728
H           1.91014117717585    0.77708232131306   -0.87375418660444
H           2.39901209015757    0.38264346689945   -2.28414717914648
O          -0.58102443765184    2.07312402819186    0.72814972769661
H           0.18465162381768    1.46404497231204    0.77028005132779
H          -1.11187059527396    1.85628645848289    1.50034990389851
O           1.30632260986190   -0.80042048729798    3.14512890239826
H           1.16340934807788   -1.49950912618608    2.46830673366872
H           1.89253877027654   -0.17255292344784    2.71261392199555
O          -1.09860484370766    0.20543016606796    2.97226195046753
H          -1.18797881705300   -0.43686560277718    1.47325261808293
H          -1.66069223860653   -0.25569257640837    3.59768598966762
H          -0.16806878399527   -0.10101470915920    3.16285703137410
N          -0.56751666878208    1.05266340952076   -1.73609982933036
H          -0.85637638881138    1.55892165470158   -0.86534735859616
H           0.38783391953267    1.38531797290424   -2.00962120303137
H          -0.39914634851846    0.04110311203008   -1.49313157987728
H          -1.24031410587492    1.09279085012969   -2.49881134334626
