    26
        -50.45476408  Gyration_radius:  2.4735527293 Dipole_moment: 6.129
 S          -1.87711401765705    1.13455731446607    0.82091607459668
O          -0.62639002962014    0.76653079782189    1.53825727045226
O          -2.28282458840647   -0.01922650460539   -0.01183475013021
O          -2.89809716589226    1.61770670666014    1.68200322552665
O          -1.46991196714804    2.28007676527905   -0.16098952527828
H          -0.72164059908760    1.96432322874287   -0.71412674190334
O           0.83898790417914   -2.19531093420432   -0.84041397580130
H           1.08843863270709   -2.95571537963519   -1.36632561576265
O           0.56613542337352    1.56528016945615   -1.71407877578727
H           0.96576393101928    2.35634941808715   -2.07776551075854
O           1.97164308942474    0.94422098273317    1.99923609160645
H           2.21013156296329    1.81565972867162    2.31791238304992
H           0.99763048496390    0.94849447382687    1.89855124358423
O          -0.86276114431414   -0.73184162249398   -2.13072747162544
H          -0.39011476333124    0.09063963831274   -2.32592181726100
H           0.20221063050511   -1.65675697839655   -1.40773841639181
H          -1.51879096075990   -0.47643727197738   -1.44474041374682
O           2.38920920773922    0.13928111222736   -0.53572632386429
H           2.37032315622861    0.40377347316319    0.40730692353982
H           2.02088120388168   -0.75653726793446   -0.57011103970123
H           1.30284543251210    1.05414206740585   -1.26227722073013
N          -0.84500667594989   -1.71935046256727    1.20315266094607
H          -0.12406020776944   -2.09629710653253    0.55324159725599
H          -1.66250944404748   -1.34578265679547    0.63861950240879
H          -1.10747887527762   -2.37201231709359    1.93201424971744
H          -0.53750020024015   -0.75576738461545    1.57156639605761
