    26
        -50.46047642  Gyration_radius:  2.5164509755 Dipole_moment: 5.353
 S          -0.41122211238537   -1.68815116647024    1.34909667102909
O           0.80459419789120   -2.39511247776322    1.03796412983394
O          -0.25251465937263   -0.71233459901737    2.42819096813824
O          -1.06516037573261   -1.07052977052636    0.20645381884511
O          -1.42855425012647   -2.78494316430067    1.88745171138297
H          -0.83002203916141   -3.42221798372332    2.26249518131950
O           1.57957731362537   -0.93298692358915   -2.90257728372123
H           1.95566329901357   -0.52267473797134   -3.68193295703063
O           1.33313396301787    1.81130408909894   -0.17436155189284
H           2.09899623805921    2.38505750961087   -0.13362189942863
O          -2.73607210308648    0.96614391446070   -0.13195776585388
H          -2.43614434147692    0.04978097955851    0.03024712314767
H          -2.44629892766394    1.14777264630024   -1.03512547531774
O          -0.49465583257212    0.51634868984453   -1.90020852324099
H          -0.67276315256326   -0.17343751318054   -1.23216102899935
H           0.10706515128026    1.13670924469631   -1.46543599333760
H           0.73387225366843   -0.47439688309186   -2.72090777402834
O           2.24968419158363   -0.58096921434685   -0.25661602664639
H           1.78828572619010   -1.27350992741850    0.25930868274677
H           2.15321014414560   -0.84925913634630   -1.19009939344794
H           1.70183223731567    0.86671566715807   -0.15639798251479
N          -0.75186234604056    1.63229702944257    1.51486732239404
H           0.07691478039962    1.83876340761434    0.91264970206743
H          -0.56463804526753    0.66662321152267    1.96377219997679
H          -0.88639127881752    2.34152617992000    2.22664345228651
H          -1.60653004188033    1.52148092852591    0.90226271228010
