    26
        -50.45870280  Gyration_radius:  2.54149424123 Dipole_moment: 6.027
 S          -1.96024454064052   -0.38587696004601    0.95833274161091
O          -2.51771658951532    0.87820773367599    0.46210042028577
O          -1.55024764571698   -1.21730650999508   -0.17285372694318
O          -0.92658549492782   -0.21582872541765    1.93620572129618
O          -3.16707609808089   -1.13486160337294    1.65445536784821
H          -3.83053637135698   -1.10223079585089    0.97345401372722
O           1.59214532869166    1.51052013341134   -0.27076140549855
H           2.36106837554406    2.07100428717329   -0.37880055995660
O           2.67681145285240   -1.72311847962070    1.42081174928224
H           3.49956997152705   -2.13790032981742    1.16068406524266
O          -0.93223293672977   -0.58808523912777   -2.67099645467267
H          -0.04861519770840   -0.97668959805693   -2.65477703394648
H          -1.36216446585702   -0.96390587519355   -1.87333372666545
O           1.09504594653188   -1.22593620252678   -0.73552476708640
H           1.31706090688819   -0.28572409258987   -0.65380262560585
H           2.09910272844194   -1.72286238479463    0.62962185028515
H           0.18612840413871   -1.32089393759439   -0.38989211699827
O           1.57596041189047    0.68546296777625    2.14146020192270
H           0.64450126659893    0.40915170930093    2.24093435706028
H           2.07114507065282   -0.15276844231520    2.09391717718411
H           1.58093201736308    1.24302445708335    0.71487647359564
N          -0.87448324998440    1.69850440759625   -1.33077337544398
H          -1.14176191304431    2.56944193259774   -1.77636323580681
H          -1.58298741113218    1.43250263557153   -0.55888759402851
H          -0.88035441273434    0.88947434914228   -2.01700909889407
H           0.07553445630108    1.76669456297808   -0.90307840779053
