    26
        -50.45870284  Gyration_radius:  2.54184408233 Dipole_moment: 6.086
 S          -0.34558822980745    1.79082833930011   -1.26237147785024
O          -0.20622494293690    0.48033183231472   -1.89659222309484
O          -1.71668829295639    1.95086917704848   -0.76286007622288
O           0.66160996235250    2.04968986857845   -0.27639415340930
O          -0.18680648172187    2.86705796393568   -2.41055972905661
H          -0.95303508295390    2.69096674382736   -2.94609305202278
O          -0.18735737209312   -0.80009351585845    2.05265559505940
H          -0.16672888255923   -1.19242146294613    2.92594896442798
O           3.35577885278784   -0.68972209232389    0.65303323040835
H           3.91947874882992   -1.44673516670539    0.81367671544017
O          -1.61020857457240   -1.75175227112852   -1.63875242116827
H          -1.18331209485952   -0.94414248334741   -1.99610639160632
H          -0.86332483168772   -2.31065846369073   -1.39048470554262
O           0.98152254842851   -1.45470482241160   -0.42934819447432
H           0.71606136335248   -0.68804164463917   -0.97396861551094
H           2.60005196003126   -1.00983634958204    0.11791410173634
H           0.56710184924800   -1.32488707235684    0.43730337581696
O           1.62906862945396    0.98609664972167    1.97030805049388
H           0.50965901130993   -0.05343778830757    2.06816097699966
H           2.40234199702627    0.50462483968790    1.62232136426174
H           1.32798078780733    1.53326917510009    1.21931761727819
N          -2.27092529782143   -0.24661630240466    0.44173732384690
H          -2.14432373296193   -0.95813994819007   -0.33456545479734
H          -2.08691146762250    0.71724919272432   -0.01188842368279
H          -3.20491036150153   -0.28373379997462    0.83525516161022
H          -1.54431005457064   -0.41606057831578    1.17235243106606
