    26
        -50.44580818  Gyration_radius:  2.45525642939 Dipole_moment: 6.575
 S          -0.27919048352629    1.18415821835497    1.58125506227451
O          -1.09982705329065    0.58178430957265    0.54614969443594
O           0.99044521234000    0.43757978978473    1.72410111068099
O          -0.07240237355226    2.59308430591861    1.46137234172145
O          -1.06887500915490    0.92852992782613    2.93607310175776
H          -1.52414414711723    0.10084258516616    2.80405809747900
O          -1.14022995936696   -2.84586189918852    0.80627321223091
H          -1.23776072748964   -3.77327937524020    0.58392643561063
O           1.23561652565164   -1.02744477521917   -1.72069093564870
H           2.00941233863245   -1.24935884827014   -2.24027854127801
O          -1.01702153946429    2.89960430681856   -1.05342271916784
H          -1.64011099387401    2.17171746623640   -0.97817265830184
H          -0.72969209706387    3.06471727424058   -0.13887719133682
O          -1.53558489079552   -1.31150407410993   -1.25694142597468
H          -1.45260165897405   -2.32252479224431    0.01225449212268
H          -1.52080674841386   -0.52196233907559   -0.68312048818571
H          -0.69299693036276   -1.28189256728482   -1.73030760583130
O           1.18012004897110   -1.78316354244160    0.71205420400222
H           1.10511016773587   -0.81049365069309    1.21123174685656
H           0.28015135797809   -2.25034138610758    0.84288285523660
H           1.23867766257197   -1.54181258988675   -0.28712273174984
N           1.42636461327894    1.43271049385624   -1.02278959536156
H           0.59562656947750    1.96894515393774   -1.29212138614931
H           1.30026287400535   -0.00707721702021   -1.50964648592406
H           2.23694856212012    1.97306976631987   -1.30039258210224
H           1.41250868968654    1.38997346874826   -0.00774800737387
