    26
        -50.46047697  Gyration_radius:  2.51747851591 Dipole_moment: 5.330
 S           1.87465984995986    0.40032182145011   -1.08241791073746
O           1.26944105676348    0.31709651638068   -2.38701701986942
O           1.07338638861982    1.09058457755819   -0.08416972619003
O           2.31630654313392   -0.89605897670535   -0.56639476025463
O           3.18758565225245    1.27742128438683   -1.26636472976812
H           3.39999395261272    1.09880388209179   -2.17625728195087
O          -1.43145376101672   -1.68337305036826    0.44918498754136
H          -1.97920762177545   -2.46356880680696    0.35616216881582
O          -2.75826383757771    1.40364238751330   -1.48622934068044
H          -3.70800415951229    1.42334112484293   -1.36403096417151
O           0.89715589667200    1.03096038621471    2.56615990596978
H          -0.02877402153707    1.30512209439598    2.58178235962362
H           1.20625309860338    1.30125811053150    1.67891032432995
O          -1.44657919692697    1.11121975348104    0.87999403790628
H          -1.61437375064753    0.15848659243575    0.89145229351786
H          -0.58293318020760    1.21095388171789    0.43488826509361
H          -2.35645680174232    1.49720536988974   -0.59828492168952
O          -1.11340207664227   -0.75876498201041   -1.91927192084852
H          -1.26942686946451   -1.35253588174784   -0.49607326489564
H          -1.71315019716918    0.01000898658967   -1.96596244771202
H          -0.23046881730129   -0.41104283365350   -2.16117856162804
N           1.00133314178765   -1.43637046138870    1.56909843129383
H           1.60949434632204   -1.24738682536643    0.69533515563127
H           0.97118698669105   -0.53357081350822    2.11878944475265
H           0.04241539187076   -1.65439813635808    1.21533001938402
H           1.38328198621929   -2.19935601155859    2.11656544652029
