    26
        -50.45484718  Gyration_radius:  2.49651222528 Dipole_moment: 5.245
 S           1.48177331751693    0.21198728451842    0.48950542315810
O           0.48514601720569    0.77450946649807    1.42534568526534
O           1.87854352270401   -1.11537627463743    0.90652954214399
O           0.98565777624400    0.28040849393713   -0.86816596069100
O           2.72563823217357    1.15892521311177    0.55404542697589
H           3.02468362018451    1.05696138489195    1.47951244826169
O          -2.48228230734094   -0.71623281198455   -0.30202116596585
H          -3.20640991438670   -1.01525977039295    0.24989834954653
O          -0.43811048975117    2.29502633482974   -1.87028829558142
H           0.39988784270985    1.86898966306785   -1.60974671963042
O           2.71157733247571    0.26988021692951    3.03932270763221
H           2.55604926125080   -0.54011760672112    2.52615855814525
H           1.83435358655323    0.63442632231592    3.19815619780450
O          -1.53630199445340    1.60516935705892    0.28024652555736
H          -0.67239470792970    1.30732003111974    0.82801862306450
H          -1.15041508487541    2.00261429883545   -0.62192606000917
H          -1.98308729649818    0.72324012978763    0.03941952367924
O          -1.05034649189247   -0.16970804003185   -2.71900770788133
H          -0.23539840449254   -0.27282019816662   -2.20406902035933
H          -1.76374659375086   -0.46678373225165   -2.14337145735677
H          -0.82523809166026    1.64382811252893   -2.49332852409441
N          -0.48871139978141   -2.37672304684498   -0.01672984338345
H          -1.70749242989301   -1.36282952906958   -0.15388298509278
H          -0.24701252499608   -2.73840359848398   -0.93235176281513
H           0.33936923834475   -1.88542548356369    0.32686142626239
H          -0.63573199566807   -3.17360621728689    0.59186908536002
