    26
        -50.45476404  Gyration_radius:  2.47358635175 Dipole_moment: 6.129
 S          -1.67988803999484    1.55398040000337    0.49822586538067
O          -0.21895192393287    1.78478951558996    0.33479269484617
O          -1.86154238947366    0.31340279507140    1.28388455500553
O          -2.37229815363666    2.67911328997336    1.01982078089055
O          -2.21675247431671    1.26112694752591   -0.93987993315394
H          -1.69402634362486    0.52222872440061   -1.32240332629149
O           1.26633618906702   -1.96897525120504    0.86550561116912
H           1.57778130489055   -2.84283237738715    1.10304417730885
O          -0.87343413902722   -0.71507362616000   -2.10571999647309
H          -1.02184851786697   -0.66927118703685   -3.05104643133064
O           2.01377729581714    1.88599591470025   -1.07942720531488
H           1.97263682958262    2.57149555042400   -1.74742243434885
H           1.17596371852290    1.94580106999354   -0.57615697570217
O          -1.24824886228682   -2.04864754557494    0.25512395644852
H          -1.61730650383428   -1.24236762641767    0.67927691558982
H          -1.28319915195588   -1.85585295654567   -0.69333050245679
H           0.29545664736039   -2.07455959314727    0.61317745486099
O           1.68014070544815   -0.72800456396730   -1.63131863696342
H           1.73931940206453   -1.16783918451540   -0.76969565496671
H           0.12152484995516   -0.70701364668766   -1.97129349818279
H           1.93021426284110    0.20632772440375   -1.47609962718584
N           0.50628779692558    0.24555793497672    2.19084797261400
H           0.50213901227842    1.01062448958085    1.43357571062643
H           0.99360546595031   -0.60273069422632    1.83423809983815
H           0.85457773976271    0.55963219280796    3.08871012329897
H          -0.54226471051610    0.08309170341945    2.16357030449217
