    26
        -50.46368157  Gyration_radius:  2.55262943827 Dipole_moment: 3.834
 S          -0.58947710277837    0.91186316965949    0.06442152935258
O          -1.65709785516846    0.00499919812010   -0.64415588794392
O          -0.60733902063512    0.46493449827262    1.45424717132245
O           0.69915366986459    0.56459436769659   -0.56031431843091
O          -0.95437222706761    2.28890261237000   -0.12461669063806
O           2.95312210111114   -0.08049421045434    0.74823884751217
H           3.66131147789099   -0.14331830211272    0.10580437877669
H           2.18190471902101    0.29013183211616    0.27013628408138
O           0.31283849461117    2.56213376424798   -2.40753815341140
H          -0.12519717061026    2.76352992217207   -1.55517772632982
H           0.94604346607101    1.87568157277394   -2.16944607047929
O           0.29385248329672   -2.02986622355723   -0.92694532833122
H           0.50855962235195   -1.07252522946435   -0.96580571973475
H          -0.65090173697691   -2.07372689187852   -1.09715355754121
O          -1.21510822521853   -1.50220010647145    3.35490352559342
H          -1.88866538645954   -1.36495576485648    4.02200244068287
H          -1.23505395546734   -0.71845171001020    2.78511371173515
O          -1.87145863926715    1.18514713044962   -2.93273699084861
H          -2.58004618884224    1.82958515861528   -2.87128229555287
H          -1.02965907186182    1.71126671127114   -2.92625892257662
H          -1.79423559038498    0.41080761028050   -1.54642279686860
N           0.94883538031326   -1.61260546271713    1.60768842042586
H           1.92988866975986   -1.28641926131951    1.57040852626695
H           0.34269223909565   -0.73108863980380    1.60258719265412
H           0.71643362377557   -2.09553481301453    0.70707835729696
H           0.70397622355018   -2.15239095243838    2.43522407302469
