    26
        -50.45335422  Gyration_radius:  2.50715638446 Dipole_moment: 8.550
 S           1.28341601610570    2.09289177605482   -0.24098450543837
O           2.08260267264098    0.87583263795043   -0.53584604027571
O           0.23928382345638    1.72205933188740    0.74490251731678
O           2.07293529512772    3.20707096647918    0.14964713060937
O           0.52619170508420    2.44718511139230   -1.56096050204805
H          -0.12666804673495    1.73495380298709   -1.74910283748994
O          -1.35192996628291    0.61903312561776   -2.05158386116234
H          -1.94450518351108    1.01891474265672   -2.68969063576816
O           0.34320081673350   -2.48536283070946    0.44956784544185
H           0.70322767325153   -3.36104622599759    0.30526742591948
O          -1.97064055925681   -1.51072065581000    1.57340042806371
H          -2.70740979616471   -2.11596535729560    1.47941936819002
H          -1.20094022563628   -1.93230419217978    1.15476846416175
O          -2.26681583804204    0.93441866305856    0.33535945887735
H          -2.26089880915984    0.10385958317746    0.84444511872905
H          -1.44731292326824    1.39731659857995    0.60080477062561
H          -1.80265655317840    0.69789379950957   -1.15379103384488
O           0.75418916650029   -1.10064293472217   -1.67901647531114
H           1.34494809942265   -0.37422716997132   -1.37423392769084
H           0.46406078552648   -1.98807261984055   -0.42240326298893
H          -0.05010179708176   -0.65470092843817   -1.98428124644614
N           1.47613599860552   -0.30480664265535    1.61172222127863
H           2.04436886327383    0.01808212475692    0.76296874213734
H           1.04315241840370   -1.22475491541007    1.39887817294102
H           1.99447572992133   -0.30246601416996    2.48223563537363
H           0.75769064426319    0.48555821309171    1.54850700879885
