    26
        -50.45335416  Gyration_radius:  2.50707804598 Dipole_moment: 8.550
 S           0.74012564846842    1.47447534076101    1.83419118021922
O           1.15373302289011    0.09069774440696    1.49657961540527
O          -0.70629476280276    1.60535498860188    1.52156001150341
O           1.07017291331331    1.86606468181432    3.15895283967812
O           1.48909745097185    2.40743993379836    0.82930934888149
H           1.37586178062822    2.04550218140539   -0.07904917452396
O          -2.09916722027540   -1.13505363169280   -0.89558668315836
H          -2.99878903550098   -1.18410758774103   -1.22044604114882
O           1.33092178613070    1.40367587653174   -1.63582296281987
H           2.01445412910783    1.84585142645724   -2.14124180315376
O           0.16343429411987   -2.66205959237289   -1.23484724422644
H          -0.66327783525056   -2.15143693112197   -1.19990347915777
H           0.18743397815569   -3.09864066111443   -2.08735196615459
O          -1.34375896580784    1.32039647686509   -1.02599896367850
H          -1.81159119186804   -0.17341513098344   -1.01763264412107
H          -1.17766606804676    1.56350087410109   -0.08635246143615
H          -0.48351862398845    1.41368450776409   -1.46209694783724
O           2.19326351012548   -0.85909019268501   -0.75853791460995
H           1.56649203575275   -1.58416960826047   -0.93315024122723
H           1.69491760082367    0.49523987592889   -1.39561525125791
H           2.01013054151543   -0.58524530601910    0.16221060384133
N          -1.17870448165134   -0.87143637718797    1.64856553208313
H          -1.59309874172761   -1.19809759931976    0.75380311864790
H          -1.50677969733788   -1.39458865356173    2.45175950258762
H          -0.11159680910829   -0.82235039804277    1.58650373742186
H          -1.31579524863736    0.18780774166720    1.73019828824206
