    26
        -50.46328768  Gyration_radius:  2.42787323598 Dipole_moment: 7.585
 S          -1.69530422545559    0.29073713390801   -1.26155871867882
O          -1.76791028388815   -0.13531652848014    0.16307137461030
O          -0.33304287709819   -0.00443465349118   -1.74182635789300
O          -2.72449876730191   -0.26339822542089   -2.06768670853118
O          -1.83426735624053    1.84552472532991   -1.24024253868406
H          -1.08675468397512    2.19263302550833   -0.70624570144267
O           0.24112293482200    2.83665988920638    0.11879002926977
H           0.48418881229255    3.65787825725602   -0.31086997156464
O           1.45764269631938   -0.55310032620166    1.92086915733347
H           1.99172289396286   -0.56005010191009    2.71549157162443
O           0.52910930501381   -2.43630208882428   -1.96824131006764
H           0.12229107515643   -1.54049771252326   -2.08272490268145
H           1.42334529847745   -2.36190734965617   -2.30681420472102
O          -0.52450494920555    1.10351076866868    2.13974785274058
H          -0.28393341718020    1.94307409219269    1.72530302835118
H          -1.13450872489387    0.67917653952890    1.49630693954966
H           0.71746848796269    0.10997292017145    2.08181194754381
O           1.80810811932593    0.85859776502242   -0.50170270092571
H           0.94726949158130    2.16739502370089   -0.11813112701801
H           1.86048057992246    0.30216473378467    0.28938564949017
H           1.07251174075422    0.49320135920457   -1.04726395605896
N          -0.24623840631030   -2.15612585363643    0.55482085539800
H           0.50481181285464   -1.75204385644805    1.14764962169369
H           0.13238720427353   -2.42654320452082   -0.39001179535406
H          -0.70213247126208   -2.93977455709882    1.00870985174388
H          -0.95936428993952   -1.35103178525956    0.38136212427752
