    26
        -50.45303522  Gyration_radius:  2.49912746105 Dipole_moment: 7.746
 S           0.64799492955331   -0.76324340893153   -1.80994453103918
O          -0.45502665437563   -0.64973145252063   -0.84883133791882
O           0.21798225557696   -0.59042090421831   -3.16117491695487
O           1.64355537610170    0.42165534714263   -1.42331968230291
O           1.45357287592808   -1.95265686330541   -1.51835679689489
H           2.09249666868938   -1.61379955557222   -0.29730695116622
H           1.13679503767305    1.21767967974960   -1.71875016984024
O           0.41734145632214    0.12742041059043    1.41943557927118
H           0.06027630377621   -0.14793356771377    0.52696462474496
H          -0.21293645469702   -0.28875947782965    2.05190176341450
O          -1.21069414133146    2.20764620520198    0.41550650208439
H          -0.56872370549339    1.63445744350977    0.87110648630962
H          -1.00911779786368    3.11046776500611    0.66596083918894
O          -1.62658095917843   -1.05333470616293    2.64412258602365
H          -1.73966103307188   -2.00456519440608    2.65308848124826
H          -2.19787352712777   -0.72501463560727    1.90605649264260
O          -0.24212257487758    2.00197516547134   -2.21229294419739
H          -0.48681660066306    1.23697398504196   -2.75129761872556
H          -0.79821721743391    1.99446234908252   -1.41359369286463
O          -2.80022023592397   -0.15927704150853    0.42097590852720
H          -2.66802287527573    0.79641717156705    0.43183362885857
H          -2.11433190855797   -0.49012263431862   -0.18293324850022
N           2.53821604603314   -1.19597229008583    0.63907448835142
H           1.74318605482811   -0.65645074192303    1.11545778929668
H           3.25217835029412   -0.53520885143372    0.34481628467587
H           2.92675032115652   -1.92266418701323    1.23150045568914
