    26
        -50.45432588  Gyration_radius:  2.48300744224 Dipole_moment: 5.126
 S          -1.36535051081638   -1.29466117331002    1.38431888299596
O          -0.20485712899671   -1.55241118680905    0.55070396886198
O          -1.22779522175348   -1.63555704408213    2.75350610893829
O          -1.72580627228496    0.19364126468486    1.27109818795417
O          -2.57541441426725   -2.02773469168512    0.76616616717805
H          -2.63855797124403   -1.73401068679456   -0.18162760225736
H          -1.39189298300172    0.67614656356368    0.40327017463275
O          -2.50411279044067   -0.97159026305297   -1.62628668738800
H          -2.65116223690149   -0.02367568124326   -1.54857180174381
H          -1.62112818050726   -1.07590139141164   -2.01255043704513
O           1.22135819764015    2.15759042445382    0.78810036619152
H           1.23198570031762    1.37628170978537    1.38671486161440
H           1.09543602211803    2.92267465340309    1.35143882746300
O           1.14784598299382   -0.05969507181737    2.30484089835520
H           0.55492026209319   -0.24906465812263    3.03819108508307
H           0.90736502512821   -0.71504229974166    1.62969039515726
O           0.27765698221757   -0.70876845902123   -1.92014352190446
H           0.21772943137427   -1.21107424771795   -1.08569457858381
H           1.19724167210943   -0.34726911775577   -1.91840625848793
O          -0.83986134805215    1.36562736913606   -0.75497179843693
H          -0.09539797224426    1.81997425787429   -0.30726779845094
H          -0.41142144053498    0.65520773486451   -1.30505056621407
N           2.63652445111664    0.48374101809056   -1.36167736673557
H           3.21042528395691   -0.17210261357958   -0.84599779479596
H           2.33129315167613    1.19617656745860   -0.70526691135239
H           3.22297631826259    0.93149702283548   -2.05452683101536
