    26
        -50.45476200  Gyration_radius:  2.47721581973 Dipole_moment: 2.126
 S          -1.63616528839210    0.37698264353066   -0.53852967521985
O          -1.34687978683962   -0.10458989797938    0.79828169358620
O          -2.22260521438779    1.66492889735150   -0.62561820015047
O          -0.33031948448855    0.35417846222777   -1.34584804786785
O          -2.55026193274393   -0.64235114501206   -1.24315591770109
H          -2.11370739564286   -1.54375009902934   -1.25060831023139
H           0.30930233520293   -0.41099389486970   -1.05388226413240
O           0.82256288552445    1.41208223615159    1.58190589323502
H           0.02079575830945    0.87967133472852    1.47996243097425
H           0.67229528809756    2.19985616304662    1.01000633605109
O           1.22407275066024   -1.48211905763761   -0.60817054469515
H           1.97793558663077   -0.93483126690077   -0.25785665003832
H           0.83988837272940   -1.90291493945140    0.18468325558702
O          -0.36263994331820   -2.45149042123235    1.39471142981555
H          -0.18834407070077   -2.57951312410838    2.32846221967654
H          -0.81185389672115   -1.57999436346758    1.30866669963326
O          -1.22746561567167   -2.86570907809908   -1.17963313892310
H          -0.35906859269793   -2.70821626278147   -1.56743979748454
H          -1.07061019127379   -3.04839158588851   -0.23965288427750
O           2.88785865268367    0.16455190539809    0.53298600838587
H           2.17098646992526    0.63910997100195    1.03177631514502
H           3.33976203184172    0.83438311071958    0.01871477357498
N           0.13242212342677    3.30189797248632   -0.23951884892848
H          -0.77260668364164    2.86564239434732   -0.40563402616730
H           0.62939888423847    3.29173651999152   -1.12168636348245
H          -0.03475305273536    4.26984351550297    0.00707760357572
