    26
        -50.44415247  Gyration_radius:  2.65108863446 Dipole_moment: 6.722
 S           0.59221380272943    1.09173287746587   -2.37133988779196
O           1.82252851370451    0.81722976913652   -1.66718392886717
O           0.40657684062288    0.45004661890192   -3.62121249096827
O          -0.59266251208758    0.70242307197216   -1.41073801775560
O           0.39208006564541    2.60562309714034   -2.46727972980722
H           0.75041649029749    2.96403167984911   -1.58693149748884
H          -0.61433919051623   -0.29654061052613   -1.33242350393608
O           1.45519746439436   -0.72874435467230    0.48353702655317
H           0.90342200373427   -1.40199850184687    0.06922288238145
H           1.81416454513332   -0.21992309776721   -0.26766340881482
O          -0.06287587616533    1.39169501562278    1.22985985553717
H          -0.70114267991292    1.31257617010586    0.51114201836270
H           0.54798904813114    0.63308228686867    1.10000606470197
O          -2.18510806547987   -2.34674203997097    0.83797828180855
H          -1.70862548821251   -1.86165271047006    1.57171726906265
H          -2.26454992749090   -3.25803356562666    1.12425432522284
O           1.43589404134676    3.10507444942895   -0.19946456988241
H           2.15801245780741    2.49580721284975   -0.39597770961791
H           0.87671501164313    2.64257273207747    0.46832346617312
O          -0.59001287727544   -1.86523856662432   -1.16871494228534
H          -0.92339637173662   -2.22815543134458   -1.99144959736499
H          -1.26031788844740   -2.06882331505507   -0.45499261275522
N          -0.73927618150329   -1.12990939293855    2.72605791890514
H           0.22882254498559   -1.32865560569793    2.49632222785067
H          -0.88013236765614   -1.34979008694510    3.70424558206389
H          -0.86159338369908   -0.12768770191864    2.61270497869951
