    26
        -50.44597211  Gyration_radius:  2.56051937294 Dipole_moment: 6.332
 S          -1.39707965458269   -0.52275248991608   -2.07783199150330
O          -1.99011109699994   -1.01449537654244   -0.85513065232332
O          -2.26718812662242   -0.29503480716597   -3.16872351784345
O          -0.59755153515910    0.77315987272470   -1.70585248731458
O          -0.26048057021514   -1.46540468578620   -2.51895975464529
H           0.40960495146235   -1.59566677334730   -1.77924744650834
H          -1.11229702607771    1.18953412447585   -0.93255863855337
O           2.11293871294681    0.83411350318704   -1.02976321628509
H           1.25827838091622    0.97757331820565   -1.45986001419368
H           2.15453017433928   -0.11904061123009   -0.86671781045384
O           1.44971148712210   -1.82890662065278   -0.61826152672393
H           0.83958372783054   -1.80312161351009    0.21032439412117
H           1.80706965921487   -2.71610673943506   -0.68100068190242
O          -0.29371377921663    1.07079290890739    2.36220509734688
H          -0.45245269890832    1.55231563454440    3.17551844976004
H           0.53727802449550    1.44884477163651    1.97536095896591
O          -1.99353242789682    1.41403230805410    0.29996307067791
H          -2.42194803069045    0.55480758823842    0.17146608763345
H          -1.41692589874325    1.31547961990348    1.09149415098111
O           1.83777836099151    2.15805209817020    1.25480534081909
H           1.75411197998909    3.07177589123301    0.97725215240009
H           2.03840316467365    1.64667788154760    0.43312985584338
N          -0.27084855271670   -1.70953794814391    1.29664349081502
H          -0.45598485855526   -2.47675620222592    1.92897508355241
H          -1.07138859710346   -1.60390963905060    0.67324323867573
H          -0.19778576051332   -0.85642602378037    1.84352638661211
