    26
        -50.45062494  Gyration_radius:  2.43111983673 Dipole_moment: 4.639
 S           0.17928385882780    0.64529927447367   -1.88960331770287
O          -0.72085231757839    1.76731764585318   -1.98728218320230
O           1.26662478977579    0.57668155129749   -2.80271512601288
O           0.72156992648063    0.58579921272254   -0.44341488817821
O          -0.62614675970779   -0.66527698645372   -2.01850107325075
H          -1.21053450271465   -0.79991507263257   -1.19130306502908
H           0.50194076291274    1.38255504859376    0.18053753157007
O           0.62249230883096    0.28355890629605    2.92703771311516
H           1.53193696924969    0.35205922157285    3.22210349089733
H           0.59826987230205   -0.45458821839649    2.28977628238993
O          -2.29160993709246    1.80439371109646    0.08669217426966
H          -1.75029633694844    1.85955467471250   -0.74241691063382
H          -3.14429721117373    2.18702150639046   -0.12607555528770
O          -1.86632877066079   -0.89377324799079    0.17766804337318
H          -1.07097774881935   -1.13878219971938    0.69135561148862
H          -2.08091163146915    0.03622254105611    0.37561662182580
O           0.10322802063589    2.31341764502295    1.27011442201090
H           0.22900558194228    1.68508798201609    2.01778177670727
H          -0.85188029867984    2.36151163251098    1.10331566654933
O           0.52960036174501   -1.79365200909473    1.13377248497892
H           0.48031305272693   -2.72774729631921    1.34413798844921
H           1.04811492096877   -1.72230578172036    0.28245774461322
N           1.85489075286142   -1.90985710464066   -1.20951896683559
H           2.82227362717093   -2.21085778460166   -1.24190205523029
H           1.80416993567096   -0.99256363708325   -1.64379663893928
H           1.32012077395764   -2.53116123313078   -1.80583776320764
