    26
        -50.46876616  Gyration_radius:  2.44061806152 Dipole_moment: 3.761
 S           0.32519519294111   -1.05423586750681   -0.46967830183864
O           0.15282737484331   -1.98561793513571   -1.55244125849649
O           0.46491403608426   -1.64528554516127    0.84761034594511
O           1.66967887334269   -0.27807493119488   -0.67700884442914
O          -0.74636104154408   -0.03176636776191   -0.46215042279777
O          -0.82926360114503   -0.26088618558549   -3.25248199055195
H          -1.53688946092236    0.08850786655804   -2.70407695165731
H          -0.49170806299366   -1.03648704692322   -2.74606177358274
O           1.22948801055827    0.71590042243135    2.06249335514919
H           1.31332792776566   -0.14087260636342    1.61082722935536
H           1.26603388089336    1.39424093123289    1.36017861902660
O          -1.37302944403639   -2.22870804614072    2.63581085380622
H          -0.93835478628546   -2.65901861627670    3.37425497280587
H          -0.70542003386078   -2.20169319756592    1.91273784319440
O           0.52168717006084    2.29583129072022   -0.06405596568709
H          -0.02707754230227    1.52589347266107   -0.30584118862751
H           1.03254470892654    2.49469418212896   -0.85274136805349
O           1.28138364323814    1.20468695007243   -2.78632741942272
H           1.91918096918596    1.03830628946438   -3.48302928063255
H           0.44165098639059    0.74505679084191   -3.06753059272713
H           1.58539287439589    0.28425626850161   -1.48913250606968
N          -1.34799277447443    0.36777280432177    2.04846051379375
H          -0.33771928453269    0.63154943488550    2.28706594887775
H          -1.55254251519828   -0.56816167096848    2.46857805134516
H          -2.02051115008860    1.08123677828023    2.30547937557648
H          -1.29643592127886    0.22287452455272    0.99906074574302
