    26
        -50.45147141  Gyration_radius:  2.53243357845 Dipole_moment: 5.407
 S           0.32366672406371    0.09997923739809   -2.25170790352342
O          -0.56137733839317   -0.71551664030111   -1.43758912942162
O          -0.31189592097982    0.85389309527485   -3.27056487251791
O           1.10007370354028    1.03837173803506   -1.26662918274876
O           1.45238662569439   -0.75594274267992   -2.79247442304719
H           1.98279494328059   -1.14911837552224   -1.94243143380583
H           0.44345408755985    1.61737733519485   -0.78544250400288
O           0.36957714194419   -1.32663083919169    0.95689307972383
H          -0.00627601384899   -1.13103640769562    0.07066522648961
H          -0.40012159961619   -1.53015376198737    1.50678619355735
O          -2.59844750489997    0.47027644632125   -0.12595244000262
H          -2.21305790446102    1.35475519069667   -0.11916457617151
H          -2.02840328920280   -0.04355744996585   -0.72586142386898
O          -2.08592366379103   -0.66487564785169    2.22483214756540
H          -2.34445619619622   -0.26471441987137    1.35632519559020
H          -2.89567409482150   -0.99452615691446    2.61442476023783
O          -0.56119892079142    2.43143854318676    0.15149647001012
H          -0.32633120429676    1.97211409543418    1.01555890887629
H          -0.27452160769614    3.34228892535875    0.23606279043979
O           0.07771316478431    1.05046852481468    2.25047787382516
H          -0.75379843437046    0.68454196204912    2.58987809552029
H           0.48658990269431    0.28351381586084    1.80346440394388
N           2.66820392254418   -1.59236801751883   -0.73620887556479
H           1.97612198405835   -1.66266824459672    0.00799718756143
H           3.34585054126367   -0.88540655187430   -0.48350481065369
H           3.13505097162606   -2.48250366323304   -0.84733075792243
