    26
        -50.44866819  Gyration_radius:  2.5324544314 Dipole_moment: 3.842
 S          -0.74810181526451   -0.62627399696647   -1.31207715349957
O          -1.74452109423514   -0.54314774670692   -0.27473956816190
O          -1.08727211189948   -0.00703237562163   -2.55145470246149
O           0.55565666448274    0.06756177216375   -0.75926656048652
O          -0.31030964133528   -2.06039693762412   -1.49822931026719
H          -0.07110507754995   -2.45125678985887   -0.53234475768794
H           0.53435186283636    1.01638177166574   -1.16973598282988
O           0.27912466974014   -0.40631708201725    1.98256885475258
H           0.51891831705699   -0.08943961127952    1.10114254701921
H          -0.52153744478203    0.07807599865174    2.21837665012893
O          -1.31946997064540    3.33654624613272    0.10368405302022
H          -1.61558612790237    2.59720036147900    0.67654430644521
H          -0.84713616208616    3.94798880273411    0.67134529305032
O          -2.06186533083347    1.21495081141639    1.60757628130486
H          -1.99618921879980    0.54413867251223    0.88528690322284
H          -2.97438248147484    1.19156341025662    1.90125477633496
O           0.17065256159197    2.28501996502860   -1.84248530972798
H          -0.40706554047459    2.76449414803185   -1.20084242773040
H          -0.41750937162897    1.85280853905030   -2.47955957132593
O           0.40020109562201   -2.81083666204855    0.75805119886410
H           0.18195437618434   -2.06922033414798    1.36239862016082
H           1.37217273297875   -2.70656893901838    0.59265498490832
N           2.83852739111550   -1.94278793215506    0.04401118327134
H           2.41914846212064   -1.15129044055483   -0.43238739691217
H           3.40737129751489   -2.44660724255663   -0.62382257057603
H           3.44397197761427   -1.58555442842370    0.77204964918409
