    26
        -50.45234084  Gyration_radius:  2.45937178927 Dipole_moment: 5.694
 S          -1.49098501462972   -0.93029908934280   -1.29713567582629
O          -1.71095678205130   -0.54102204345678    0.08740433266816
O          -2.64762695650457   -0.96041591311780   -2.11305874441002
O          -0.45886437286752    0.07239370686081   -1.88602652217365
O          -0.76910977372444   -2.27346214368933   -1.32834987234382
H           0.10099900619945   -2.16144149410637   -0.78860545171198
H          -0.03911352017248    0.65748105694057   -1.16875305511578
O           1.09751738432819   -0.06132385038741    2.01081578974491
H           1.68997741409402   -0.11963231511286    2.76127682773698
H           0.17190695570486   -0.11537192199838    2.36861740958455
O          -1.43024098627004   -0.11219974552415    2.73056978778153
H          -1.68863081882813   -0.53394836971942    1.89420654826622
H          -1.76702597589985    0.78765079784965    2.66822000133388
O          -2.05452090196368    2.01424849448418    0.65697671255379
H          -2.06450728930973    1.05946511446709    0.42574071626108
H          -2.70542828018097    2.43471357372522    0.09385043746335
O           0.52624994453699    1.59956426756371   -0.07835328349448
H          -0.30732462065181    2.00049744428180    0.23568314651144
H           0.84043924350655    1.04866202783926    0.66265728936890
O           1.36865249138794   -1.82324401319049   -0.08176213154902
H           1.87909796539517   -1.24905230624405   -0.70976589988105
H           1.23052504228627   -1.28291327326296    0.71718147368241
N           2.51480952954740   -0.07575142969644   -1.78521146415630
H           3.44261291146745   -0.16048382550152   -2.18008972699841
H           2.43124299535319    0.83809538212704   -1.35549424038415
H           1.84030441952435   -0.11221014188738   -2.54059440498135
