    26
        -50.45473869  Gyration_radius:  2.43771887394 Dipole_moment: 3.434
 S          -0.52053851192308    1.68656685093436   -0.45515497954211
O          -0.82858699317756    0.77546730349666    0.62820728449557
O           0.06870366040902    2.91953672629207   -0.06352378848770
O           0.37544241417730    0.95263848422137   -1.46485164935135
O          -1.80853265541676    1.95598490429748   -1.25500485682693
H          -2.06078119088652    1.06203973271574   -1.61138880162172
H           0.72643309312720    0.00686737744246   -1.13883154406851
O           1.14279520042684   -1.27984884078822   -0.66798016051578
H           1.34639099404750   -1.06791377879931    0.28565316125767
H           0.34261472809026   -1.83472515823951   -0.65514237326036
O          -1.31979411607062   -2.46198687782750   -0.46925760476215
H          -1.47346467689463   -2.14814213474974    0.46273470518462
H          -1.73903805969093   -3.32038013843858   -0.54474819888948
O          -2.02263292316202   -0.45897084686885   -2.16762037006721
H          -1.85147894236490   -1.17538676649903   -1.52135413814967
H          -1.27026823220323   -0.45123513813054   -2.76543074887392
O           1.35058491795323   -0.33181693199171    1.75771171860669
H           2.03637069990697    0.35519219687347    1.60015057296034
H           0.52340219430328    0.14256332914938    1.56297350109356
O          -1.55233467476392   -1.45827572335998    1.94213213292933
H          -1.54626048426548   -0.54856616545018    1.59992532600028
H          -0.72323397038581   -1.55300769883458    2.42184808362176
N           2.64794234587871    1.82456520613350    0.77727768136895
H           3.24314914019430    2.45874237601719    1.29665677580984
H           1.79629909755791    2.33187138772212    0.54187947493297
H           3.11681694509464    1.61822031467424   -0.09686121386424
