    26
        -50.44288245  Gyration_radius:  2.49789610208 Dipole_moment: 5.624
 S          -0.53912850656592    0.41133146155975   -2.39908219672266
O           0.78553933595942    0.29603957653424   -1.82224368078198
O          -0.59302252932156    0.57329282396770   -3.80461767480747
O          -1.31342278327143   -0.87184855823985   -1.94967880207132
O          -1.30648785303595    1.53978174372649   -1.70756407447368
H          -1.47772793627528    1.27345288841012   -0.73308775367217
H          -0.62638173022002   -1.48702482494748   -1.56399088808454
O           0.52671716349941   -2.37838636884551   -0.91354367158948
H           1.21479231075801   -2.31173463247501   -1.57876233523489
H           0.88345869300698   -1.89946742728770   -0.11772474939979
O           1.30098025512346   -1.04519327533879    1.22685254436347
H           1.69595767625862   -0.20928308018279    0.90676570461381
H           0.51372878732508   -0.80336864768172    1.72101680222276
O          -1.82429386103610   -1.93530212221192    0.73206285037847
H          -1.07556116741756   -2.43650762584637    0.39065338142587
H          -2.51278430784824   -2.00109511728990    0.06562403022175
O           2.19615570606865    1.28425809057918    0.13484327596636
H           1.64138038713613    1.02705402683006   -0.63840885102979
H           3.08841513909972    1.37170599731110   -0.20445176507273
O          -1.68438581532445    0.80158510486255    0.67407100720229
H          -0.99267511410607    1.14289532422362    1.29225241725977
H          -1.72048224118409   -0.16951254103345    0.76272309283236
N           0.25307416170535    1.80005717388119    2.27856448396716
H           0.60989286162464    1.41033659521443    3.14259939750015
H          -0.07261119200520    2.73742249188366    2.47892380525438
H           1.02887258002253    1.87951093250619    1.62620364971110
