    26
        -50.46880310  Gyration_radius:  2.368901329 Dipole_moment: 8.459
 S          -0.34032660301683    1.15492420879028    1.50026359378919
O           0.46980662578760   -0.07979085456339    1.48330327086352
O           0.32188459314741    2.23617719089064    2.15270288811059
O          -0.73765232642445    1.48099865046357    0.11499304183600
O          -1.65123219896582    0.79888433642041    2.25776663229662
H          -1.96760767889041   -0.01934164913274    1.81011643500519
H           0.67402031399930    1.64362165589137   -0.77372452752679
O           0.37239757367030   -2.30586028654248    0.28621595975339
H           0.40538039870259   -1.43889320761667    0.79397019696754
H           0.99987413901173   -2.88225381642696    0.72469803547142
O          -1.95540479905713    0.02059055012143   -1.56910937789827
H          -2.56716737967932    0.57650280412510   -2.05359908721616
H          -1.51944438684034    0.62477525196737   -0.89073243320102
O          -2.29025150011419   -1.34106010050265    0.82603576742733
H          -1.51779382975684   -1.91943706321383    0.77999013789066
H          -2.39712224222347   -0.97813170106509   -0.06751347459218
O           1.51355074351072    1.39920571635036   -1.22568610718106
H           2.16847715761917    1.36146791888925   -0.48769518240168
H           1.08297472153762    0.05399843115972   -1.69028968565574
O           2.73512177883611    1.23399506424076    1.11697915835217
H           2.51272823656393    2.05184565846514    1.57409034684895
H           2.01505549215553    0.62990569112041    1.38310385901461
N           0.56355329821444   -0.87335299521558   -1.97324969163677
H           0.92919282100589   -1.26742628034701   -2.83243865395709
H          -0.44037149592151   -0.61164738453512   -2.06360859468712
H           0.62035653732327   -1.54969775974578   -1.17658250761860
