    26
        -50.45060026  Gyration_radius:  2.56549156618 Dipole_moment: 6.262
 S          -1.18175203045875   -0.96610211607284   -1.64423678199017
O          -0.15673976836480   -0.19390153750426   -2.31230521637416
O          -2.04850132577780   -1.72808184159195   -2.46176145430942
O          -0.44367327309637   -1.87659811843817   -0.60014341448371
O          -2.00271867341035   -0.05168764053336   -0.72767392723558
H          -1.38185985931405    0.51368188278453   -0.13005481782923
H           0.44295567592601   -2.09962383768912   -1.04199571128066
O          -0.54562062833132    1.26333162480847    0.86632770180559
H          -1.25819697357955    1.50286996395317    1.50885877436507
H          -0.02112669339234    0.53881024302180    1.29811230017230
O           1.77776532406030   -2.01031103702556   -1.80983689371388
H           1.41993271525657   -1.36894764739513   -2.44094921755254
H           2.33934695759773   -1.49438733720279   -1.19396630428708
O           0.81590696981982   -0.83682239291110    1.68700630166087
H           1.67081644500850   -0.72285503926187    1.23643816548014
H           0.32353993788939   -1.47271567324936    1.15111757631808
O           2.88324868701013   -0.27172297651403   -0.05270908722005
H           2.38483785716110    0.50522237683276   -0.43920482770740
H           3.79496920276267    0.00640421153274    0.03952491201645
O           1.38965526061995    1.61021347774622   -1.07240482858990
H           0.84959878260382    1.07108838941822   -1.68225476037119
H           0.77873306418269    1.86359472237140   -0.36611039602259
N          -2.71397909428187    1.57055169914520    2.43349714205727
H          -3.07684560861031    2.49415463606076    2.63214655335173
H          -2.67159826205643    1.05365090825745    3.30290267775284
H          -3.36869467921397    1.10018304946732    1.81967556390849
