    26
        -50.44652639  Gyration_radius:  2.58350446009 Dipole_moment: 7.039
 S          -0.01151092018239    0.93965356096534   -2.16044502030801
O          -1.05950852253636    1.65105780295596   -1.46826467214872
O           0.88011557956321    1.69931965009901   -2.95576954597869
O           0.77272594435414    0.11762990947162   -1.09444405574549
O          -0.63532277720882   -0.18825274261707   -3.00981059721971
H          -1.34309612295613   -0.65545482235706   -2.46273841913889
H           0.86176503002726    0.70983845498869   -0.18374954403528
O          -0.06594036916041   -2.20329634522024   -0.05059582834657
H           0.45845845941559   -2.95568698132187   -0.32768404291309
H           0.32689443023787   -1.41091476300252   -0.47497409030301
O          -2.68153090459385    0.66385397703168    0.28494118914445
H          -3.38052335819507    1.29710733075206    0.45276787247005
H          -2.04827442849361    1.11531587866948   -0.33256345495285
O          -0.84187796841301   -0.40359382865459    2.00724003412364
H          -0.61086656879825   -1.20103470704417    1.51209464965278
H          -1.61734281973593   -0.03123591138815    1.54944556822548
O           0.93510220130990    1.29182006341804    1.05707235007552
H           1.83013939782363    1.05728101118990    1.41019651243601
H           0.27824103855693    0.74281056866737    1.56319173433835
O          -2.28877858726213   -1.39740002389545   -1.44934561681495
H          -1.65968792156607   -1.90497874770338   -0.90803949716645
H          -2.65690013564546   -0.72053421813649   -0.85258494925651
N           3.38918353829587    0.52027829895234    1.91005990425116
H           3.37769717865809   -0.26680988369571    2.54643257674975
H           3.88624934053910    1.28040835249037    2.35670627532978
H           3.90458927597285    0.25281809537988    1.08086068750922
