    26
        -50.44656172  Gyration_radius:  2.46228518502 Dipole_moment: 2.615
 S          -0.65669210789485    0.92999724037669   -1.73931001972809
O          -1.70090421418143    1.01609219823894   -0.73963757462172
O          -0.78254204449616    1.76776137333214   -2.87206178945137
O           0.71029388113297    1.18316391862518   -1.01770643367339
O          -0.48822751319695   -0.53719558200576   -2.14051310613416
H          -0.87271322595333   -1.08135624274002   -1.35226494701577
H           0.70794338439120    2.01102473652147   -0.44468944246048
O          -0.31092825612257   -0.84622207899456    1.92234503352545
H           0.62634223252845   -0.76525715980924    1.62324702834772
H          -0.63140585285488    0.05485920941343    2.06668209514525
O          -1.35620579616817    1.76713131230600    1.72684994135284
H          -1.55416215397059    1.48558320936520    0.79877340916133
H          -2.15540041717598    2.17899936779077    2.05928319528369
O          -1.52173769585381   -1.74016229396385   -0.18616685771528
H          -1.04403740648773   -1.46424767724435    0.65858437308977
H          -2.36867048318878   -1.28740667482477   -0.15783528005339
O           0.76883960742614    3.04729806576771    0.74050787646619
H           1.55884169357484    2.85390320982289    1.25201580370377
H           0.00543494273295    2.71586199872085    1.26190178713414
O           2.04360299902851   -0.58546063489267    0.71419879113199
H           2.00909649887443   -1.43668585646078    0.22379546980770
H           1.80594193456087    0.07774153013271    0.05392922742253
N           1.43500301428590   -2.67767100446100   -0.93163636431522
H           1.17999045394145   -2.15863970333509   -1.76465290955264
H           0.57694017020627   -3.05123248256398   -0.54279768565608
H           2.01535634487328   -3.45787995912162   -1.21284165118704
