    26
        -50.44942753  Gyration_radius:  2.55973300572 Dipole_moment: 9.344
 S          -0.54082052568975   -2.11731228827601    1.04785290445906
O           0.37734184365025   -1.72164540803028   -0.02726847331945
O          -0.05787079063005   -3.15388489139527    1.88944276269098
O          -0.72897351856637   -0.78444758812499    1.91280003733695
O          -1.89223381429228   -2.35090443124727    0.50134722921372
H          -2.28664316538749   -1.56600995745092   -0.52768932731244
H           0.21472310598062   -0.64573926087017    2.18762161992579
O          -0.81369412850661    1.64645631521284    0.62358173083143
H          -0.96260445589003    0.87411536844328    1.19668119280667
H           0.06203031637925    1.98381335416143    0.86597029493655
O          -0.23002812946359    0.26289071948156   -1.53623887234885
H          -0.45286327407586    0.90675578358159   -0.81317661545098
H           0.10683062906532   -0.53423448073807   -1.03642937315993
O           1.95296577893521    2.03199426705027    0.78099085585939
H           2.68646692205220    2.56226631306930    1.09467275975326
H           2.10439507138115    1.87573681121289   -0.18009293513676
O           2.11973756746695    1.57561819033327   -1.85093081265983
H           1.33014041311081    0.99683870521609   -1.90264998207364
H           1.98448191884291    2.27805675862008   -2.48854671712042
O           1.82831830740723   -0.49330609366375    1.90869288858064
H           1.74177136536545   -1.09589182066362    1.15465418537057
H           1.95091676008195    0.39999934757971    1.53578258389886
N          -2.58558959258124   -0.88224854219718   -1.40615732036963
H          -1.68802810745524   -0.36724260327944   -1.65350796293585
H          -3.30223710542840   -0.23330069320990   -1.09904586478696
H          -2.91853338175523   -1.44837387482549   -2.17835679897038
