    26
        -50.45165582  Gyration_radius:  2.4721507157 Dipole_moment: 3.925
 S          -0.76382526488846   -0.95986359686049   -1.17167594023380
O          -1.24633645704239    0.10967244494447   -0.32485027380919
O          -0.29198838058118   -0.54830415619368   -2.45083564597875
O           0.35923376246416   -1.71349083467134   -0.40598571440352
O          -1.84203148103956   -2.03012780225490   -1.28425279209393
H          -2.33562881055405   -1.99805583063802   -0.38507214201722
H           1.17347852102581   -1.10755535402607   -0.22976282215357
O          -2.86884379724768   -1.62396382099812    0.99081684059483
H          -2.10799108037182   -1.78581897576850    1.60166387151851
H          -2.87193007753467   -0.66959344939946    0.85148848246334
O           0.63305761504185    1.94165245672690    0.02733934210980
H          -0.17166701915731    1.39765172488989   -0.08839810910088
H           0.84566070463925    2.22821519352381   -0.89642243737416
O          -0.52489225278874   -1.76955878627220    2.23047537320709
H          -0.07922738656742   -2.06390624219759    1.42583835476248
H          -0.14402183327082   -0.89813579962372    2.43452823438843
O           2.22998633368699   -0.13891413960438    0.21819376092413
H           2.32083609257501   -0.25041132222086    1.17087790444928
H           1.76034128805899    0.73110191838707    0.10255570707357
O           0.71936317207610    0.71841067142586    2.55832004254250
H           0.46605799511474    1.21628262554807    3.33693454898080
H           0.61984391338909    1.31548237472945    1.80014026780049
N           1.02948899652854    2.06317269223201   -2.61340361869670
H           0.55041057821346    2.71860158768180   -3.21848579259339
H           0.56702665476194    1.15973525266612   -2.71560753613044
H           1.97359820345335    1.95772118796951   -2.96441991622568
