    26
        -50.45592084  Gyration_radius:  2.41403269078 Dipole_moment: 3.043
 S           1.32088350533344    1.05519131589555   -0.67215243792127
O           1.40730192473785   -0.04967873665973    0.25108106251079
O           2.32286972960465    1.09298483163904   -1.68210780219551
O          -0.09210881798269    1.06963502789414   -1.28554781013460
O           1.33121163197289    2.37761032992197    0.12883932291913
H           0.66813641944999    2.27712241640605    0.86791693934437
H          -0.37030210207568    0.05394646441892   -1.55557226019276
O           0.01032039883801   -0.64818009435905    2.41298816993197
H           0.67477704457009   -0.53161518209144    1.70488017586834
H          -0.21335668231906    0.25339904861838    2.67398278987007
O          -0.66331073937318   -1.27963648230762   -1.73877226159381
H          -1.02730658344436   -1.53498491990255   -0.86796945326769
H           0.27243508785359   -1.63859153551606   -1.81349862442275
O          -2.34478196637298    1.17478955142976    0.31922186934493
H          -2.35947486201981    0.20878994882095    0.44669710463537
H          -1.82029137858649    1.31464197718548   -0.48182948007278
O          -0.53129617525383    2.10264472414461    1.94101529323928
H          -0.78448530642958    2.97027666681749    2.26207313937194
H          -1.29268451340530    1.77586567659585    1.37606959553300
O          -1.81019669877909   -1.49742012803706    0.73602124732022
H          -1.12427608060775   -1.24659397109243    1.41608692169129
H          -2.31409940533237   -2.22155738763016    1.10892429685046
N           1.91170620194895   -1.80019124019713   -1.91284886845521
H           2.38639034024816   -2.38627023097880   -2.58895370726832
H           2.23432536962237   -2.05463995167934   -0.98700968742284
H           2.20761365780213   -0.83753810933574   -2.05953552548540
