    26
        -50.47166719  Gyration_radius:  2.38848189661 Dipole_moment: 3.171
 S          -0.18383788509304    1.31929006324496   -0.49534465677942
O          -0.86059148596918    0.95201417030701    0.74411447070381
O           1.12172680339065    1.90686274609145   -0.23763696020951
O          -0.06363299630608    0.16746664897054   -1.39339645167689
O          -1.05588282642020    2.38539377288966   -1.20990375378142
H          -1.84532437082346    1.86614744691853   -1.50514795130137
H           1.88248493192930   -0.52288096041420   -1.55556081226476
O          -2.83185733665974   -0.75755219442582    0.62385672745777
H          -2.09980468703546   -0.11021187797924    0.75457210375189
H          -3.45502527261353   -0.60476833815480    1.33562907009492
O           2.01565955214446   -1.55101091953932    1.24843276373928
H           1.16085630521327   -1.93514619855981    0.94626973511283
H           1.76736734904102   -0.81678412296465    1.85813188522082
O          -0.31145144469232   -2.07554866002567    0.05570643472977
H          -1.19842134966550   -2.02920445819653    0.43057352387476
H          -0.25179573522196   -1.30029647342110   -0.53427695092351
O           1.19386693313147    0.69693913007872    2.40967019038359
H           1.70520411347455    1.46429165254337    2.14218803022342
H           0.34962270188789    0.78578369949523    1.92406936225374
O          -2.72077163989850    0.47522328794776   -1.84312848658706
H          -1.88745410003659    0.04228343073199   -2.07525765179637
H          -3.02805277820287    0.00739902141966   -1.04524234156555
N           2.53795030792250   -0.18075344050761   -0.84851904051451
H           2.42712642770170   -0.82461000074570    0.05416972293423
H           2.14228605649929    0.77170155502353   -0.58780389052991
H           3.48975242633851   -0.13202900065129   -1.19616507255964
