    26
        -50.44523575  Gyration_radius:  2.53451939728 Dipole_moment: 6.596
 S          -1.86231872723845    0.99541933412683   -1.14526141086239
O          -1.55683992503793    0.55824521643393    0.21080747154469
O          -2.97047453119406    1.87170679483402   -1.25409785551006
O          -0.59110764296369    1.58287087035631   -1.75799628288257
O          -2.11213920446361   -0.27096790951791   -1.99710068058421
H          -1.29356155720914   -0.82031992584256   -1.90212069692341
H           0.13458597552249    1.88699734415372   -1.05170258304292
O           0.78545389548658   -2.51687357049858    0.71952148428569
H           0.65369347900196   -3.42198793854164    1.00588982709464
H           0.24318970254210   -1.95784013350793    1.33454617151240
O          -0.45347147617334    2.02500855517804    2.11009362130458
H          -0.98345011623023    1.52116608681460    1.45603567561707
H          -0.95523114953409    2.81634126808232    2.31087379415394
O           1.15165547661217    2.18619280746286   -0.08379763811791
H           1.69079885523982    1.34931545036735   -0.14698203178624
H           0.72827677202130    2.18224134229497    0.79721916052330
O          -0.00082628438771   -1.79793410745760   -1.74376961633061
H           0.25972777466413   -2.04384655610282   -0.82416436302994
H          -0.20952302562136   -2.61509435650594   -2.20063694827798
O          -0.75300416903040   -1.01022929963091    2.22589773899831
H          -1.22089449000922   -0.57067676567821    1.49345508599880
H          -0.34698211241468   -0.29120047001960    2.71979706426137
N           2.34217331182682   -0.16665208342237   -0.47651031444223
H           1.87469194540359   -0.39371751688201   -1.34723518818088
H           2.10514960429228   -0.89673999626475    0.18589519157759
H           3.34042760896126   -0.20142443029899   -0.63865670679001
