    26
        -50.46843451  Gyration_radius:  2.5388160406 Dipole_moment: 4.850
 S           0.40739119362472   -0.67634350517714   -0.47590559971022
O           0.63361221886611   -0.80459025479347   -1.98477544370880
O          -0.77789433703507   -1.44355835437049   -0.09559696806754
O           1.59385075182521   -1.15515919642541    0.20250505930648
O           0.19243987093284    0.75863163263377   -0.18163268079626
O          -3.05045749315746   -0.62560038455614   -1.13912013322214
H          -3.56640346476228   -1.41680866451863   -1.30370342496138
H          -2.24455823734700   -0.92288690802021   -0.66130407608469
O           3.05526988626001    0.22157001759859    1.89424361220458
H           2.62522333657018   -0.37702964103820    1.23692475541234
H           3.70593980297475    0.72517992590655    1.40332923364626
O          -0.13513691426984   -1.83044199163429    2.40106747809617
H          -0.50053424552596   -1.79771344659824    1.48457453864465
H           0.71191768650868   -2.27466483369090    2.30187979818151
O          -0.42433691390188    2.52853558382366   -2.08359697580890
H          -0.22100251694173    1.95775351731639   -1.31453007952917
H           0.41729034059102    2.73829648531511   -2.49198732832517
O          -1.40414510667092    0.22080781046323   -3.07071113155621
H          -2.14008747081900   -0.02789935036809   -2.46827405126738
H          -1.22128593897247    1.16490420933094   -2.88380663061885
H          -0.19534511084341   -0.43319510404014   -2.47361064651572
N           0.49523296656987    0.72421340670634    2.37561395053656
H           0.27812765323286    0.87533085933521    1.33737214339777
H           0.05180714809467    1.41069654046263    2.97576996920495
H           0.17437579448335   -0.27074335453204    2.57579654348768
H           1.53870909973558    0.73071501088448    2.43947807806098
