    26
        -50.46245705  Gyration_radius:  2.47603339275 Dipole_moment: 6.407
 S          -1.39748072787255    0.58588935436824    0.95271142946027
O          -1.39540694333269   -0.21477147648288   -0.28232829412746
O          -1.91285182841012   -0.14572318025098    2.07287446187878
O          -0.02746486952480    1.09102883906775    1.18052541570711
O          -2.30083540259388    1.82015002993014    0.70309423404701
H          -1.74586027476693    2.41221697808083    0.13901866929830
H           1.05841127974388    0.09602613334775    1.01606126908834
O           1.72469247920067   -0.63990367424114    0.73569787833364
H           1.09377548200124   -1.47643297619621    0.54750248687488
H           2.07123651257257   -0.33224496504080   -0.22755211136020
O          -0.27792302017814    0.81763907444496   -2.36294687966085
H          -0.72494494806860    0.38449369427837   -1.58518256115625
H          -0.85278397935067    0.65996185220627   -3.11338786100401
O          -1.13831520343370   -2.62605534336086    2.58803352805579
H          -0.72339056552382   -2.58663530223002    3.45116815758512
H          -1.55237186237126   -1.74693903475491    2.44808320303254
O          -0.39442167839011    2.97187021661402   -0.65868345799501
H           0.08351722008736    2.51273414720840    0.05216438177756
H          -0.30009076323745    2.40620465230812   -1.44409726693760
O           0.02253772600698   -2.38135297014132    0.22259306844472
H          -0.35575955679413   -2.70132324748018    1.07370579617527
H          -0.62827911671906   -1.71571070776615   -0.09312605541906
N           2.38986216474180    0.11762638934215   -1.60383091694872
H           2.99655511950215    0.92688520104722   -1.62996457727953
H           1.48814200966612    0.37694910657827   -2.01022284975837
H           2.79945076702144   -0.61258280091142   -2.17191116808568
