    26
        -50.45006377  Gyration_radius:  2.4859743985 Dipole_moment: 4.607
 S          -0.74876783954172   -1.88445973577125    1.28349448970230
O           0.52950503406361   -1.62234762893724    0.65418242090460
O          -0.81175942165475   -2.99952436645259    2.14955407478280
O          -1.17363126332139   -0.59114856112857    2.03894562579335
O          -1.80234268232488   -2.00092056765077    0.16202718468838
H          -2.39994904210684   -1.16866239010040    0.13700508104194
H          -0.55837840483472    0.17954797554545    1.81917040763031
O          -1.11467115780963    1.49895581878411   -0.84790307867276
H          -0.67991456323518    0.76435929687851   -1.32479747157830
H          -0.56139303087197    1.67680536145929   -0.07361230371083
O          -0.03311258236258   -0.81004488311384   -1.79792960399260
H          -0.73788306261265   -1.38980032863943   -2.09529408515477
H           0.24645136202644   -1.16348715650553   -0.92574805908195
O          -3.12718445479613    0.15107398958486    0.13852626893808
H          -2.47101157786236    0.76401943742363   -0.29893765992824
H          -3.17743739530623    0.41455821544828    1.06104297319143
O           2.48029957061214    0.28249172630289    0.76769791557178
H           2.08513901888456   -0.60235506377618    0.76705810062033
H           2.56828259606994    0.53113284246301   -0.18958781660963
O           0.33467706830257    1.41537554615698    1.52160723147446
H           1.23415958805213    1.01451160857338    1.23703667736136
H           0.50175626542465    1.91042240439384    2.32530365256736
N           2.41003852836825    0.88307476174827   -1.86138070689541
H           3.21760105574516    0.64150372737458   -2.42111494309230
H           2.14377754298256    1.83225750596973   -2.09123656823624
H           1.64574882810724    0.27266049396357   -2.13510980732018
