    26
        -50.45092236  Gyration_radius:  2.46261572539 Dipole_moment: 2.966
 S          -1.86358875303272    0.44928162301392   -0.05460325049165
O          -0.89716777862608   -0.43922351898791   -0.64456961872546
O          -2.86783439620070   -0.18932315157461    0.73494115550583
O          -1.12015912265875    1.51476827963410    0.78287543788372
O          -2.52961294403089    1.29425649206901   -1.14599624575996
H          -1.75225069696503    1.73443548392168   -1.61872389347553
H          -0.18425920608191    1.22362257181784    1.06754036452703
O           1.20768629678272    0.85905772277926    1.54249603463041
H           1.26028875025394    1.06464439721636    2.47724810653647
H           1.26622297526892   -0.18423093376980    1.45802298397536
O           1.78189421600718    1.41129477827623   -1.13621521350207
H           1.82147439645700    0.47640129665814   -1.41165049585749
H           1.72273146120256    1.38449811235277   -0.17155637398657
O          -1.50961013503047   -2.29271899296015    1.74999817242680
H          -2.03752654391396   -1.52227700628098    1.47297408577873
H          -1.91594131308271   -3.04710600379337    1.31904382745213
O          -0.44753839825789    2.40571562411968   -2.11308105279653
H          -0.43886292383948    3.31842917612101   -1.81722760579377
H           0.40279484704527    2.00415599771904   -1.77859339887730
O           1.38469955282977   -1.23912625023007   -1.72640889301969
H           1.22963788917626   -1.42496471406246   -2.65394924662688
H           0.51097102878027   -1.02178456067819   -1.34467435631017
N           1.27979416695391   -1.68702403345758    1.30857891735816
H           1.52455617266393   -1.87925278984438    0.34401967290716
H           0.30583569134427   -1.96319574094547    1.44887624585927
H           1.86576477695268   -2.25033383910969    1.91063463038331
