    26
        -50.46585432  Gyration_radius:  2.38172058041 Dipole_moment: 6.670
 S          -0.75969947332580   -0.93210119335915   -1.05842512903653
O          -0.40358787209595   -0.85695975606588    0.37728314335278
O          -1.97620402334425   -1.66400919388395   -1.26759233253924
O          -1.00140620516895    0.58545031823652   -1.47439489545157
O           0.37900027269198   -1.34199550007674   -1.84389077102587
H           1.96865643261168   -0.88865137759595   -1.62923026016319
H          -1.63363180971161    0.95856868098478   -0.77780420806518
O           0.39012122173880    1.25931690810732    1.62953127109077
H           0.02508865355736    0.43642804839715    1.20658569350099
H           0.98706108459488    0.94554085910563    2.31210025839745
O          -2.37561926386211    1.46163367426304    0.48216522141648
H          -1.71674100673169    1.65040133569127    1.15929199122468
H          -2.82082114345514    0.61505138698321    0.74672303565445
O          -3.15291695839950   -1.00231025668244    0.97273260687709
H          -2.86663406422803   -1.33020180098552    0.08924313584653
H          -2.52207380267420   -1.38365754769728    1.58795399107210
O           2.74555823963630   -0.44715626289586   -1.20688378078495
H           2.07329744641100    0.86155339317367   -1.00081495273968
H           2.77228442815924   -0.85073628274252   -0.31383357929142
O           2.02848568909484   -1.54517975209381    1.13212770501634
H           2.12320585163606   -2.49824323639320    1.15570660065299
H           1.09946471203698   -1.37259994115863    0.85409822430817
N           1.35520791400848    1.67704509364481   -0.83149981161313
H           1.13425251146827    1.73029591365018    0.19149173803319
H           0.47002271942293    1.36792753417847   -1.29129801889066
H           1.67762844586233    2.56458897525186   -1.20136688725374
