    26
        -50.45374069  Gyration_radius:  2.48255947197 Dipole_moment: 3.158
 S           0.59338790060290   -1.14340694395373   -0.76050559068950
O           0.62791376359691   -1.57510911103504    0.61342061396912
O           0.03471128044435   -2.09267737617231   -1.67650561818300
O          -0.23800971017789    0.17863724818719   -0.82535736526728
O           1.95474503132236   -0.69041559720074   -1.22451239613437
H           2.27800720567874    0.07772796489896   -0.54997783935501
H          -1.15409791489807   -0.00095466744268   -0.37602514590010
O          -0.86129839447582   -0.79166912722408    2.59306825662422
H          -0.86673459802216   -1.40898055570612    3.32589225025069
H          -0.25604698738602   -1.17269160550050    1.91250692054579
O           0.33700929846467    1.55821503799661    1.74902426088541
H          -0.25626837140520    1.67076098531072    1.00157289690531
H          -0.02611645270360    0.82216151282099    2.26615574670042
O          -2.32050346988778   -2.80322281582049   -0.67652090214081
H          -1.41935134131286   -2.68402841094326   -1.04312833110309
H          -2.86800612495432   -3.09769338558641   -1.40697185993465
O           2.54295289995374    1.20268510136101    0.25718078765254
H           2.30148061356451    1.90725585083625   -0.39416460910377
H           1.84900186244337    1.26597774868509    0.95230451182119
O          -2.37951201291675   -0.36739920681599    0.37223530608540
H          -2.53882515269210   -1.27972525273704    0.03592455184076
H          -2.06900579545065   -0.47724018541823    1.29055196305287
N           1.35536473831535    2.67654485515400   -1.65611274590133
H           0.62538652419348    1.97200257145746   -1.69334013844078
H           1.83541315985087    2.67125766936004   -2.54691176884980
H           0.91840205787465    3.58198768551561   -1.53980376532650
