    26
        -50.46648665  Gyration_radius:  2.38929410269 Dipole_moment: 7.014
 S          -0.11844789965538   -1.31765032940987   -1.11133281059142
O          -1.21131431025731   -0.41045712239849   -0.64560028934611
O          -0.37508788410382   -1.83487163765982   -2.41280890468951
O           1.15740350616180   -0.62295729101531   -0.95479742647109
O          -0.12635753629484   -2.48870086108297   -0.06509581504797
H           0.58397334000897   -2.27353121111332    0.59199217655867
H           1.63360220643708    0.97601368684309   -1.49410862307429
O           0.21885297790005    0.50834291276609    2.69100878698927
H           0.19753208555199    0.64419102732030    3.63915354456988
H          -0.55279253937033   -0.07961239490508    2.47009292413028
O           1.75402159455512   -1.47847820187554    1.44489440085439
H           1.38264702167245   -0.77736054145334    2.00372898485689
H           1.90694174337439   -1.06476910102079    0.57535456012912
O           1.40453655580488    1.91122212285819   -1.66879390254420
H           0.73098551518140    1.83535116556291   -2.37277296885612
H           0.50775201168458    2.02400620551516   -0.41306358881183
O          -0.71709465040038    0.88247604733709   -3.00390314569290
H          -0.48097951094574    0.15996859205913   -3.59323210893646
H          -1.11161662817419    0.43243433572807   -2.24244384360893
O          -1.72454384445685   -1.05792543375370    1.86175890750447
H          -1.68217367494663   -0.86063837019076    0.89943892640062
H          -1.56332209701211   -2.00268560958163    1.92527250521779
N          -0.26303956021405    1.81560031969586    0.31583874224720
H          -0.93679908914225    2.57173168149727    0.37466382251261
H           0.11242219808648    1.57858887031153    1.24697237621472
H          -0.72710153145045    0.92971114795971   -0.06221724052052
