    26
        -50.45249875  Gyration_radius:  2.51533218494 Dipole_moment: 2.836
 S           0.93695373565484   -0.74921876690759   -1.22790065305001
O           1.00145821459641   -0.83447132436110    0.22026405638821
O           0.16834693806600   -1.78753593795595   -1.82941587832656
O           0.40861885810427    0.64335889753788   -1.61328295542128
O           2.35175067011490   -0.71943259079983   -1.79832645426426
H           2.75382304809904    0.16373806184309   -1.49580982743880
H          -0.54228634962829    0.82576755721970   -1.27939238954260
O           3.28761110816602    1.46943088975984   -0.88150239305962
H           4.16638507405506    1.33329135092942   -0.51926023297643
H           2.69721400962330    1.65702555629523   -0.10803340683974
O          -1.46132283435379   -0.73807664179666    1.26455764556665
H          -1.90459488013860   -1.51176879912748    0.83334995629242
H          -0.52030961416114   -0.86720360796352    1.03944047880887
O           1.74105816610848    1.50435693941640    1.24704291131623
H           1.52648198275506    0.57709222103253    1.03181301237568
H           0.88313887562609    1.91906789613866    1.42603404310090
O          -1.86620869913338    1.09416916094983   -0.60235741254184
H          -1.74045596956661    1.90740261267742   -0.09974516574026
H          -1.88079158373778    0.37395004573845    0.07886005416015
O          -0.94179197118541    1.92404655184774    1.97667068465987
H          -1.02482729860328    2.21466518085880    2.88603108020654
H          -1.16734838606686    0.97912896625194    1.96567398335020
N          -2.22415134159911   -2.68321769296746   -0.40101121921095
H          -3.04349553515559   -2.53655229928410   -0.97795233849346
H          -2.19742248611033   -3.66444115688811   -0.15239093976004
H          -1.40783371150202   -2.49457306050073   -0.98335662956416
