    26
        -50.45003084  Gyration_radius:  2.66124795105 Dipole_moment: 2.382
 S          -0.14308373954970    0.17995397433699    1.26119567415534
O          -0.90285432538268   -0.63088923562333    0.33721871859462
O           1.27553130610447    0.08664930869784    1.09573122040745
O          -0.59337559688591    1.64361275484636    1.14174153081547
O          -0.52295941766544   -0.18588414857185    2.69480035415531
H          -1.45499098750477    0.20986233931712    2.86252921642208
H           0.01938667421005    2.06144225402264    0.39394047203526
O          -3.53152925712285   -0.36786908355840    0.63869172690014
H          -3.92873408306522   -1.24064060161126    0.63364324397480
H          -2.59288149472028   -0.48925813415010    0.38716003262743
O           0.97654942362006    2.30241691680803   -0.66411568408681
H           1.76675361300406    1.86950041108869   -0.32382263272564
H           0.59742150340584    1.66978411576177   -1.35568081220435
O          -2.79532540963449    0.91519714720547    2.82182348812721
H          -3.25028990872812    0.46208333524927    2.06943838931355
H          -2.56455119306194    1.79179676462583    2.49920777358235
O          -0.03200984379548    0.40677779954667   -2.07421374923030
H           0.70079366562067   -0.16802706189049   -2.42244112995643
H          -0.43857942728486   -0.09157333326801   -1.35102006260490
O           2.96119982100810   -1.69023946703097   -0.10441595786534
H           2.39056511340918   -1.03372705682526    0.32903199044585
H           3.13468456416035   -2.36427992302657    0.55431129925396
N           2.01489577616593   -1.16834625818701   -2.82733920299450
H           2.41245442670867   -1.42372139015760   -1.92544097113893
H           2.74407749417070   -0.72125672256550   -3.36848511536992
H           1.75685131276690   -2.02336470500521   -3.30348982264002
