    26
        -50.44464812  Gyration_radius:  2.46760633038 Dipole_moment: 4.728
 S          -0.45815199593795   -0.53787738766151   -1.41009617295274
O          -0.16329702231796   -0.89315059886392   -0.03381711453356
O          -1.37386877746581   -1.38209174349917   -2.08145242433198
O          -0.97428384556036    0.93245537394275   -1.39135880342066
O           0.83992706003086   -0.38370541956495   -2.20052712635068
H           1.35035190942935    0.37604415666554   -1.75673642643728
H          -1.41559546869640    1.18034699034548   -0.53050690370235
O           0.66893312003918    2.33024757204617    1.09955072501067
H           0.87960406285702    1.57289481540337    1.67846851406021
H          -0.29298631839121    2.34577844534089    1.02603988396461
O          -1.72242132246052   -0.63062362863748    2.16190577466642
H          -1.00237904888504   -0.51606548128948    2.79235302967519
H          -1.30903479106028   -1.03381676578691    1.37950883801305
O           1.15638357396935   -0.11827835189493    2.17928091000505
H           0.78503857380321   -0.47207627825647    1.34892339304110
H           2.06923188402488   -0.40840262824672    2.21302092224205
O           1.96194048903901    1.58701574686076   -1.06488389292484
H           1.95070505864317    2.32639009706097   -1.67612140708867
H           1.47512617550898    1.89534057954016   -0.25097497037364
O          -2.07190475774401    1.60377777063558    0.86384024519593
H          -2.01222434027092    0.78712798011784    1.43772560469614
H          -3.00403300591239    1.80731647658483    0.76710163124771
N           0.81261154795754   -3.32890990163028   -1.55878725338046
H          -0.06098696277135   -3.54729324901252   -2.02349420461988
H           1.33994197513415   -2.74827039079540   -2.19980797758119
H           0.57137222690270   -2.74417418944723   -0.76915481413733
