    26
        -50.46977747  Gyration_radius:  2.44199402665 Dipole_moment: 4.808
 S           0.65491970283079    1.15939549396489   -0.75019423847769
O           1.18478837198627   -0.19023995375356   -0.57843063163800
O           0.16837925253419    1.40899377590955   -2.07156776954569
O          -0.36902384587379    1.43138608791528    0.28506352702486
O           1.85659916879974    2.11186608595855   -0.41167382611852
H           1.45839960812049    3.00174298685248   -0.37935190447222
H          -1.65674783604715    0.29646984880485    0.04223693929217
O           0.87554537541351    0.10497988166033    2.16970434535020
H           1.68730753140486   -0.05354108146496    1.67770083436865
H           0.36272555902528    0.70404677343209    1.58015849157952
O          -2.13809099475992   -0.54443356317585   -0.09320994625081
H          -1.39080607602881   -1.45656786785231    0.93438041932290
H          -1.83086056837582   -0.86906567741304   -0.96407086518028
O          -0.66084382085624   -1.24226335424365   -2.25918090566760
H           0.07089499071017   -0.80176540279699   -1.78841977271380
H          -0.85782222025236   -0.64307928293614   -2.98412523733390
O           0.08891714479454    4.04073127374220    0.06603512114439
H          -0.37157424374675    3.18612153644631    0.15199864457638
H           0.06648893250403    4.45290405475780    0.93289625843804
O           0.92753053861668   -2.87703574425641   -0.41159515888157
H           0.40459671492214   -2.97925642520400   -1.21423784309644
H           1.29771491047744   -1.97843759678087   -0.47898418804068
N          -0.65592480832139   -1.97127612083225    1.52304314971362
H          -1.07349194752944   -2.56402848581761    2.23092883462132
H          -0.04575217813959   -1.21591656007342    1.94524669241773
H          -0.05386924207786   -2.51173067270418    0.84564901967516
