    26
        -50.43964512  Gyration_radius:  2.72887440686 Dipole_moment: 11.042
 S           1.54855840331438    2.64950103472833   -0.71739042672450
O           1.24543991722544    1.52234154380941   -1.56025475751449
O           1.28270332760933    3.93879655437112   -1.23765717069142
O           0.80602359526246    2.42135340734745    0.64614659667737
O           3.02789810670302    2.56104619307637   -0.26502141223549
H           3.09143553704599    1.69063135750453    0.19877641112532
H          -0.07383296396595    1.94116340322528    0.48579441669788
O           2.62014249710544    0.39447558594013    1.14216303525193
H           1.94160765872362    0.93037210487110    1.56819859026281
H           2.15079212626576   -0.34519274664429    0.71594051825519
O          -1.28665850000290    1.01095506759084    0.27681049332492
H          -1.30721049554912    0.33102510627343    0.96845307230437
H          -1.06860347314330    0.52215046516561   -0.54845319400213
O          -1.35766127803188   -1.44624807445899    1.61535711440666
H          -1.93880776198203   -1.65778196859470    0.82417056005607
H          -1.80977353394860   -1.76869653376858    2.39535293087144
O          -0.38596406507744   -0.54920559045562   -1.74643318710880
H           0.17790124417198    0.20497160763532   -1.99535184031453
H           0.19663319952248   -1.09760906881847   -1.19883133177935
O           1.03074788143670   -1.73714777023943    0.36751031015839
H           1.41485859811860   -2.59526969438843    0.55246940626954
H           0.22842906319602   -1.65352716099084    0.92102643396319
N          -2.77833694267048   -1.82987520901736   -0.59670376650586
H          -2.10494736467186   -1.46400372373027   -1.26714566806746
H          -3.59035303563474   -1.22542396059445   -0.63112849561667
H          -3.06102174098722   -2.74880190981905   -0.91379862908035
