    26
        -50.46857985  Gyration_radius:  2.40016404614 Dipole_moment: 7.181
 S           1.55614918873540    0.68992370834574   -0.16506024149833
O           0.90185687667157   -0.01732239715103   -1.27974472254204
O           1.33470338687904    2.10593283056366   -0.21529141417579
O           1.12795888594590    0.08596892414431    1.10974449672002
O           3.08201313326346    0.42292925891816   -0.29415470144855
H           3.16733800106996   -0.53134222539795   -0.09232021038394
H          -0.34044288326017    0.67222287805376    1.76613898412352
O           2.98662608198139   -2.11605931911170    0.52115143267601
H           3.00249208482497   -1.93877866663749    1.46531634647542
H           2.09845203826329   -2.45259914289086    0.32273645450943
O          -1.48969513605549    0.68185975320776   -1.93054039665423
H          -0.53522941164066    0.47896786127457   -1.71742659642113
H          -1.53453547556231    0.75333290182310   -2.88491496663297
O          -1.23755652561482    2.75708450405413   -0.01481739785597
H          -0.26012481166835    2.73348578401357   -0.06829502977317
H          -1.53558715410062    2.27074784013984   -0.79512760451643
O          -1.29202499413321    0.90289690664840    1.83962740922179
H          -1.90701749664298   -0.10997987838336    0.97512696054906
H          -1.37801237340698    1.73417184996033    1.30349929300797
O           0.18651034698029   -2.08183874117952    0.11595726596791
H           0.49935083797985   -1.37142631968299    0.73230289442131
H           0.41032915977205   -1.66141458193780   -0.73678908067107
N          -2.18611140315658   -0.84829031346098    0.19603715479635
H          -3.08590203510208   -1.27909787334126    0.37301329618536
H          -1.40124170573829   -1.54796108164327    0.17831660646263
H          -2.17029861630858   -0.33341447031059   -0.70448624250989
