    26
        -50.46083782  Gyration_radius:  2.4614440522 Dipole_moment: 6.366
 S          -0.37835503889080   -1.08347647821180   -1.20981344693316
O          -1.20123297374730   -0.01003083046012   -0.64187802748189
O           0.19294036889294   -0.72535005310092   -2.47737530750666
O           0.78212631583392   -1.33358813980116   -0.16719688400851
O          -1.09550686792455   -2.35768433207150   -1.18451111808136
H          -1.05458709439356   -2.68291706138210    0.20240830204871
H           1.42028701013862   -0.56270279792727   -0.15051279347245
O           2.27894419713223    0.74811935887534    0.12134360263692
H           2.25269271405880    0.88867990469728    1.07338992466741
H           1.65367113977192    1.41047136529595   -0.25267326198022
O           0.63500974378265    1.82386581057298   -3.15875061795140
H           0.55720904887316    0.86561237687624   -2.96415716878517
H           0.08828362124457    1.97533080503668   -3.93084493767390
O          -1.37375203939944   -0.31924976185830    1.92930378807882
H          -0.66328463188091    0.28791451368796    2.20569468969380
H          -1.47930935154329   -0.12922966019113    0.96502629215855
O           0.43705807892455    1.75633161844027    2.16189550658717
H           0.12935677283648    2.45482398534004    2.74145133808450
H           0.28749290014074    2.07311892916784    1.25301610811208
O           0.15675429853830    2.23217516915644   -0.55514040748784
H          -0.45233623936734    1.45997603615368   -0.60641946484099
H           0.36557970619745    2.40936986790662   -1.49233322346103
N          -0.92319874672088   -2.80342533749852    1.29922105921879
H          -1.57168390915731   -3.48282783075219    1.68393588590300
H          -1.08673866438226   -1.81669068020545    1.70146269846093
H           0.04257964103503   -3.07861676799919    1.45345742392270
