    26
        -50.45754972  Gyration_radius:  2.4606750774 Dipole_moment: 7.150
 S           1.01477502407033    1.79248066955073    0.98568948670989
O           0.86503691190694    1.45992550579606   -0.46120648907018
O           1.42863274013543    3.13515314482857    1.20147471053215
O          -0.26148699864324    1.45628493979931    1.65827778517002
O           2.09559995877841    0.82521645561530    1.53306181970348
H           1.81917998774761   -0.10547876539537    1.31573923506989
H          -1.55042131928440    1.62745898021728    0.51358486804450
O          -1.20451771412495   -0.90641789381613    2.06244870611663
H          -1.48699371255737   -0.97743663602458    2.97472162574220
H          -0.83067575155727    0.01414828954673    1.95951622116785
O           1.21071253274132   -1.57427435103131    1.00678613097894
H           0.36873922339750   -1.54993870487186    1.49279305978951
H           0.97124278398414   -1.71075152102785    0.07355399177742
O           0.28742927785730   -1.94969870187303   -1.58784560702577
H           0.58075363447731   -2.77870228666460   -1.96844600685014
H           0.88905674276043   -1.25124691495635   -1.94282638096025
O          -2.12885251950475   -1.15528020169381   -0.51324862113400
H          -1.94487737360752   -1.26379932780265    0.43664675057480
H          -1.35267571427112   -1.52084716136260   -0.97235326362477
O           1.97223790303855   -0.04555746710799   -2.28612146681776
H           2.03178716970547    0.51068242574519   -3.06398020037759
H           1.70079067976676    0.54852347130283   -1.54891309040243
N          -1.65568190526861    1.42723642300808   -0.50333989480372
H          -1.98199833851066    0.41838850249799   -0.61727517736712
H          -0.60587871022347    1.47292742523494   -0.75545015026666
H          -2.23191449284603    2.10100370044189   -0.99328803274163
