    26
        -50.45793225  Gyration_radius:  2.46114284826 Dipole_moment: 5.056
 S           0.91866365035756   -0.41845446488529   -0.06619339495708
O           1.29713861386582   -1.18286156772873   -1.38509294452276
O           1.76077701388381   -0.87205526823440    1.01008707707663
O           1.04305999804869    0.98856810874472   -0.39025875215586
O          -0.49939590108176   -0.77543475682937    0.17804024517155
O           0.04910659215675    1.08233720156041   -2.77794428912052
H           0.43586709592028    0.29281035380257   -3.16645105567487
H           0.55282859134946    1.22189232162357   -1.93817308838749
O          -1.16573315580228    1.00389505436432    2.12760887836201
H          -0.27460216031331    1.32133393824861    2.38922401912483
H          -0.99420185648361    0.21141115371762    1.59216507876296
O           1.46728313366098    1.51687094024105    2.29608128101033
H           1.74205990955767    0.60665599226817    2.10092652402436
H           1.53098687983509    1.96495669756752    1.44520428065077
O          -2.34462630210424    2.38410924562161    0.28544779648930
H          -1.85640018013499    1.95976672111517    1.05742107760270
H          -3.24891252147544    2.51075258869578    0.57914214328964
O          -1.96795038799607    0.51040949042375   -1.35125450407242
H          -1.40526129491498   -0.11303545521566   -0.70655819163279
H          -2.17486662745769    1.34497698861037   -0.74825558510984
H          -1.26954567944515    0.80563074829252   -2.04960346476293
N           1.27707693584286   -3.42606155586277   -0.07925835746123
H           0.33931244833238   -3.75469974419322    0.11123291776353
H           1.33111136302115   -2.14195572709439   -1.09157298923259
H           1.55781243190017   -2.81756275210735    0.68680876365484
H           1.89841142943238   -4.22425630273564   -0.10877347585184
