    26
        -50.44883020  Gyration_radius:  2.50914159031 Dipole_moment: 5.116
 S          -1.65377044955966   -0.72166076036333    1.37265137358370
O          -1.57786971794011    0.19444320958441    0.25155251125198
O          -2.93966582651893   -1.24271690293710    1.65520826231127
O          -0.63554796905496   -1.87167743526299    1.10991523100924
O          -1.04462006894834   -0.04911410749708    2.60657998703177
H          -0.19860477406658    0.42805968158883    2.32373197878974
H          -0.90832938506379   -2.30446160887145    0.24344898530478
O           0.79497435637254    2.10670555418951   -2.33776258127130
H           0.49610074381683    1.17353130180676   -2.33802838060306
H           1.72987822206775    2.09626616964524   -2.54572213418173
O          -0.28291534550879    2.60431516417206    0.10329453120717
H          -0.99860748501350    1.95065532351861    0.07065328283183
H           0.11834180099175    2.59309346525684   -0.79026898504111
O           1.02808958614806    1.27863915787432    1.87137940884572
H           1.23470310858217    1.87086912110700    2.59760749954095
H           0.58500196993995    1.85184232997109    1.16371773013042
O           0.03715274543069   -0.43399721588063   -1.77364059781293
H          -0.59626749231111   -0.09431724151721   -1.11057200073825
H           0.84650080908926   -0.64526337403405   -1.24054800735052
O          -1.36476726142019   -2.62962329343517   -1.22770603302251
H          -0.84322857376130   -1.92839619890368   -1.68716508046161
H          -2.29189778663732   -2.40338751662550   -1.33060308712621
N           1.99256654053832   -0.90620788435636    0.01100733629266
H           1.94576484720718   -0.10455258597175    0.63231401753995
H           2.96772921855609   -1.13431207359266   -0.13579818716942
H           1.55928819712309   -1.67873228941393    0.50475293914985
