    26
        -50.45117522  Gyration_radius:  2.4988663599 Dipole_moment: 4.836
 S          -1.66947048029987   -0.48523286927590   -0.21019763747320
O          -0.47842071837302   -1.20757995214260   -0.59683676497622
O          -2.44488244154565   -1.09166533129820    0.82207646292390
O          -1.20939714413525    0.93725112413264    0.25532106003236
O          -2.51435694539247   -0.17661874117173   -1.42685764224350
H          -1.84045492789064   -0.07766641432833   -2.22820262472920
H          -0.66547679608136    0.83578870164988    1.09863584391814
O           2.60515709155966    1.67220581778981   -1.14804859160745
H           3.28881745416512    1.42072101775340   -1.76991099265859
H           2.44264201764482    0.88752815357974   -0.57685141056084
O           1.92691356429335   -0.42623690783717    0.37149187342440
H           1.65197064698281   -0.01388652658561    1.19778351630660
H           1.11585188514905   -0.79826938861376   -0.01909362270810
O           0.14624955061224    0.49744047531451    2.39633053497971
H          -0.25162165287727    0.93676472049171    3.15047350391042
H          -0.00803660278771   -0.50073213318143    2.51642612377629
O          -0.65682791465315    0.00077200594245   -3.06807256982050
H          -0.32359114726483    0.91020730438762   -2.81399309958678
H          -0.12300883223744   -0.63307552428691   -2.57168379227894
O           0.10954333127597    2.22490942486221   -1.96105119309249
H          -0.39772918464430    2.14487329363966   -1.14548770703111
H           1.05374113570041    2.14917677568669   -1.70166465192313
N          -0.34295379190650   -2.05943727504745    2.43452024642955
H          -1.22177349592796   -1.96638533033212    1.92550145631817
H          -0.49998265639057   -2.64309377739394    3.24649060038898
H           0.30709803504357   -2.53775864372837    1.82290108827644
