    26
        -50.45161653  Gyration_radius:  2.48239985455 Dipole_moment: 4.481
 S          -0.78365530101012   -0.40041272564934   -1.29339507213175
O          -0.11209636799866   -0.96082412667213   -0.13872229573109
O          -2.20522467134290   -0.51961101083404   -1.25508197685016
O          -0.36352203399883    1.07862387859312   -1.43075114216832
O          -0.22490114304905   -1.02301334242580   -2.56150093724376
H           0.78307182782628   -0.83361428011024   -2.56629676213548
H          -0.73779500655581    1.63228550474762   -0.66871834640245
O          -3.03402619872487    0.52177056220191    1.11730941148493
H          -3.00761194929378    0.05534534611407    0.26474461473935
H          -2.55207568022242   -0.05801735634870    1.74789094244809
O          -1.21483347615399   -0.97405900904697    2.41468036186600
H          -0.89875384978294   -1.30955512860320    1.56362846075713
H          -0.54156226102931   -0.33608152178000    2.68989858711594
O          -1.36729972371369    2.36940459613281    0.52731907381754
H          -2.07080201587098    1.70567439757876    0.84023672377325
H          -1.84403704733800    3.14993853764722    0.23868302261126
O           2.27188965133648   -0.63848770307159   -2.49137027533783
H           2.70795039341290   -1.34211484687887   -2.97732505451887
H           2.54008891887504   -0.74125298739541   -1.52410572562735
O           0.81510549763622    0.90761275119880    1.67605434562738
H           0.57455227103017    0.28678367500627    0.97123702528015
H           0.28749847909637    1.69631609054375    1.51442551798165
N           2.78640667008995   -1.03045335636078    0.06441428834211
H           2.87341608600622   -0.16329217445636    0.58247958570604
H           3.46326155494014   -1.68442013017768    0.43736354280719
H           1.85495537587779   -1.38854562998280    0.25690208370215
