    26
        -50.46785584  Gyration_radius:  2.45669538928 Dipole_moment: 6.732
 S          -0.31375608152391    0.10602991821129    1.15964417453076
O          -1.39146069067358   -0.24697456400181    0.23720850808689
O           0.61403336571948   -1.02673313468848    1.28304647814149
O           0.38057248531825    1.31078351271810    0.73654743228238
O          -0.91018464722493    0.33337757277834    2.56164762511010
H          -1.18119294568865    1.29943737092658    2.55366406292826
H           0.91222215286951    1.09327532962269   -0.88061840521799
O          -1.37380382853263    2.80683796630264    2.09384071746988
H          -2.09060602534528    2.71558493027240    1.43269159793567
H          -0.55372415406587    2.74098840982985    1.58058488765577
O          -0.64558988326212   -1.04297483981388   -2.15991436780544
H           0.12837318796718   -2.08223069789959   -1.47555306860561
H          -1.15767013980224   -0.75252178909742   -1.37311256068583
O          -2.82244406548645    1.97418163282807   -0.01040312693947
H          -2.61838717408211    2.29264159904724   -0.89181133387719
H          -2.39889171437345    1.09418115191600    0.06753480300469
O           1.25908944980489    0.71053453104253   -1.71102842774638
H           2.02544069945118    0.18952264521698   -1.42655146401532
H           0.03891707445861   -0.33256272273227   -2.25230720341153
O           2.88389073549836   -0.90630841966205   -0.12178451492016
H           3.61579185870633   -0.43320221722558    0.27650222466923
H           2.13987455718903   -0.84082755529396    0.51395216359306
N           0.72646763155985   -2.66155216976021   -0.74109710710086
H           1.72041308545455   -2.57921507528823   -0.95622833691142
H           0.43766133576758   -3.63064663397407   -0.66727711725921
H           0.57496374029674   -2.13162675118569    0.17082236913316
