    26
        -50.45186193  Gyration_radius:  2.47639151585 Dipole_moment: 4.940
 S           0.64907540216417    1.99795027818301   -0.92352115724741
O          -0.10463791304562    0.79440984875190   -1.25502906031713
O           0.26490288803446    3.14996756745151   -1.65420706957654
O           0.47733073124394    2.23646503428370    0.60876908683022
O           2.12738484699433    1.69975200471331   -1.04208922673073
H           2.31234266717291    0.80847925569234   -0.50063311728083
H          -0.49581149999079    2.41372265584161    0.76212419236952
O          -1.60198397184710   -0.27477407056509    0.67451903788692
H          -1.63183622501108   -1.25483246071357    0.55196808196059
H          -1.11385578958889    0.05218567390540   -0.10513552443303
O           0.65387215587913   -0.14260148703133    2.15827002064007
H          -0.22880807676645   -0.24099430362277    1.73675886236673
H           0.75411110736597    0.79750657063120    2.32994815224375
O           2.39203483180270   -0.44904466372085    0.18887561754617
H           1.96056561388156   -1.08091518261041   -0.41779990649698
H           1.80994311171435   -0.39680191902045    0.99233230784020
O          -2.08822873004309    2.37777645248925    0.77029545005013
H          -2.21753024878033    1.41701630954358    0.88274360097644
H          -2.39203351474499    2.60493131949330   -0.11184341150363
O           0.86701570214339   -1.63491162263439   -1.73737343126528
H           0.42539651764494   -0.76285972324912   -1.66080904272349
H           1.24961318711993   -1.66664463298327   -2.61570922341397
N          -1.14048002335296   -2.87989675231958    0.16478966193080
H          -0.43800785022342   -2.71442760303260   -0.55046270390851
H          -1.81260294788417   -3.54106632793089   -0.20244991750494
H          -0.67777196180604   -3.31039222168482    0.95566870975845
