    26
        -50.45210038  Gyration_radius:  2.45813864393 Dipole_moment: 6.102
 S           0.13743543944228   -0.06331459474529   -2.22540382921909
O          -0.00907292665761   -0.98988180152792   -1.11017720582326
O          -0.66766749282983   -0.34616288426661   -3.35748895644996
O          -0.19564968999836    1.35286118356639   -1.75030088749415
O           1.63436920627262   -0.00899100516786   -2.59694377696157
H           2.17052285096722   -0.41339975647268   -1.84821932862981
H           0.10978546573306    1.60741939862924   -0.79048458342516
O          -2.59130235959468   -0.23339786367255   -1.09007467362203
H          -2.68826860204254    0.12747178818213   -1.97484018398724
H          -1.74732492675384   -0.71052837307335   -1.11118485620580
O           2.61046775391680   -1.19902845844811   -0.53930635404397
H           1.74078055766867   -1.62273033882301   -0.53197192090475
H           2.62539894474720   -0.64837204538825    0.26508028565546
O          -2.14807394639772    1.11880484632772    1.21432448686682
H          -2.76664554340663    1.84917277172035    1.26870756636649
H          -2.36849476647682    0.63882130844880    0.38597209742119
O           0.35956846750508    1.93739788460308    0.62224066715540
H          -0.51414159114723    1.67636856414890    0.98575786616918
H           1.02222399903413    1.33913087221701    1.02079903445684
O           1.97574954321129    0.09089975310603    1.78386964766824
H           2.37807469055747    0.19764306890094    2.64644473463836
H           1.14880488656145   -0.47300940240532    1.90173883916471
N          -0.30614978432046   -1.21207970205450    1.79445464015886
H          -1.05977161546632   -0.57553773045219    2.03243738586244
H          -0.50904626606358   -2.10747924640977    2.22012659965670
H          -0.34157228427570   -1.33207823867002    0.78444273561993
