    26
        -50.44089605  Gyration_radius:  2.67647741319 Dipole_moment: 7.595
 S          -2.55590907313017    1.44008830165147   -0.66716853291431
O          -1.78929764082835    1.60745302503951    0.54211831248506
O          -3.71353123638630    2.23726987740995   -0.81936093302473
O          -1.57509034864301    1.61934950529093   -1.87186428744705
O          -2.93594715076007   -0.05552404357775   -0.81256844846949
H          -2.07023713061501   -0.53805868209681   -0.88992791543932
H          -0.74840896600383    2.09588399772466   -1.57145950395247
O           0.71516663502799    2.61122480751333   -1.19601113377546
H           1.05499746146212    1.84097362085451   -0.69476020387064
H           1.27622452731811    2.71330245597558   -1.96778768228122
O          -0.29555141344288    0.23740277851883    2.18295566590441
H          -0.94095347305674    0.72073249289627    1.61747781517736
H          -0.27209599952071    0.71059370755002    3.01571539519989
O           0.01134345992361   -2.44089615778523    1.30941192967122
H          -0.17358111413835   -1.61823080340672    1.78488651492595
H          -0.41224228820593   -2.33993806044577    0.45064547554698
O           1.33510888477298    0.29763570491916    0.01059621434159
H           1.99642418279653   -0.43734425990440    0.14883909841268
H           0.87461796057031    0.37243011103320    0.86888205147906
O          -0.57487944992230   -1.06869025533839   -1.19497004335549
H          -0.49287370111888   -0.93336234233144   -2.14082397980955
H           0.14171204374124   -0.52268746993223   -0.76698118206741
N           2.73749795453362   -1.88489657131716    0.56796500686699
H           1.88429118223760   -2.32662252044594    0.92174447633657
H           3.40582742628664   -1.85553291264917    1.32739131566217
H           3.11738725709962   -2.48255630715139   -0.15494540559184
