    26
        -50.44055300  Gyration_radius:  2.57053390311 Dipole_moment: 8.222
 S          -1.98193731067672    0.66213425959543   -1.61663037528374
O          -2.02710452792910    1.61152703911561   -0.53656476601207
O          -2.01998725886888    1.18826837157197   -2.93402323798195
O          -0.68872746385216   -0.21327889867642   -1.42578356030787
O          -3.06351394312413   -0.41088766801490   -1.41740693472433
H          -2.82535594484407   -0.80953367479603   -0.52891958664902
H           0.12622059974508    0.36015541244462   -1.41389583176028
O          -0.51021729630005    0.29794492428333    2.32356638859572
H          -0.21473371628783    1.07610404781292    1.77280263579710
H          -0.82543469080942    0.66763469870914    3.14915468048289
O           0.14446669348769    2.31840105164661    0.80492136283595
H           0.80685642748723    2.08998672526361    0.14005813274586
H          -0.71120397704334    2.27008781406897    0.33301562846846
O          -2.07876820702039   -1.33912978542304    0.77188168637587
H          -1.28696188022378   -1.75729365384445    0.40990287144295
H          -1.73774768732779   -0.61317246489538    1.32882899015978
O           1.51458697705476    1.16338333489779   -1.37099593209066
H           1.77831821647185    1.36447169816980   -2.27048220962885
H           2.08857140163810    0.39539157587893   -1.04702891418358
O           0.77512639684156   -1.92051819615228    1.34781368245159
H           0.41653275255620   -1.10372164465937    1.73902512822454
H           0.64848323781255   -2.60950065466222    2.00200893423730
N           2.83212658729177   -0.93722281201274   -0.50227818270253
H           2.12554420603522   -1.34536498407281    0.10847803214116
H           3.66696453456800   -0.78524968155720    0.04965102685569
H           3.04789586329763   -1.62061682470371   -1.21709963951443
