    26
        -50.44608332  Gyration_radius:  2.61322263432 Dipole_moment: 7.389
 S          -0.04072625740274    2.47982001979750   -1.28719594831306
O           0.21706128211719    1.24465020199153   -1.99167077280356
O          -0.38748676616371    3.59596718738484   -2.08729166089415
O          -1.19845882653279    2.16757224493049   -0.26006688562172
O           1.12060358551118    2.80185522034665   -0.35500846477666
H           1.37975046234278    1.93923142943459    0.13389673584772
H          -1.90785632810891    1.72907582592591   -0.80356692770368
O          -0.93914559305250   -0.06944058267051    1.45896163767653
H          -1.34478014335008    0.79586362268474    1.34374952134656
H          -1.00146675452412   -0.50522343518535    0.57679078101846
O          -2.67967083190620    0.78757436117146   -1.88645913427127
H          -2.30408910496910   -0.08344326144773   -1.68411536970593
H          -2.30306392149794    1.05439156589143   -2.72956250171539
O          -0.72267518394292   -1.01593013946122   -1.04430921931931
H           0.02377987925754   -1.61789800811696   -0.90680119903091
H          -0.30980003244297   -0.22048339316125   -1.44992512525754
O           1.58902859079025    0.62089542254418    0.84246147945249
H           0.71632759487464    0.39923564391183    1.23779240107038
H           1.79752379248836   -0.13588455940250    0.26680186701982
O           1.71297276887433   -1.96429973177397   -0.15551098533731
H           2.49068696701450   -2.49153356692367   -0.33868516197694
H           1.41527301147907   -2.18751227810688    0.76760765272718
N           0.79362999665793   -2.34920259397531    2.34351483058406
H           0.37782846398043   -3.23524610988708    2.60183730135406
H           0.05465868980816   -1.65176020262950    2.33772877208670
H           1.45009464865490   -2.08827489328156    3.06902639654501
