    26
        -50.44998235  Gyration_radius:  2.62750197067 Dipole_moment: 1.963
 S          -0.66507362310692    0.86773415167902   -0.41714800721570
O          -0.93898461901421   -0.34675812328044    0.32653149856591
O          -0.57264004799060    0.68145012598593   -1.83227646655544
O          -1.74677774968011    1.91072845055592   -0.07068086965914
O           0.60439204681617    1.50954202966656    0.12311994442803
H           0.61622182837092    1.26674666025419    1.15969243971042
H          -2.66336688609061    1.59699282587547   -0.35861585785282
O           0.48819212952874    0.64128889925588    2.43760974634326
H           1.35483649007250    0.15279099913885    2.55042354556217
H          -0.15670978139972   -0.01864578117458    2.14675113352153
O          -3.98611797356029    0.86103170258782   -0.75981922110119
H          -4.49511018265951    0.59871246376181    0.01073067263327
H          -3.64142037663181    0.02896095843740   -1.17038615846535
O          -2.60018341618387   -1.22406638808590   -1.60965152016961
H          -2.07071255133880   -0.81630171005170   -2.30444143334278
H          -2.03253556653770   -1.19081492073833   -0.82055253825067
O           2.79347160606991   -0.57657745277303    2.43490113177587
H           3.49685135475861   -0.22009860373081    2.97961246805424
H           3.03053755599070   -0.35554438341213    1.49558746152186
O           3.18892486279042    0.19113681627001   -0.05563154071043
H           2.69542910545822   -0.49065265927904   -0.57085794584267
H           2.65233656458160    0.98631503250503   -0.13444918396485
N           1.40128238557382   -1.41317586710703   -1.29501040122164
H           0.85143322626799   -0.69806036245932   -1.76166924297447
H           0.82339655746679   -1.78112978617010   -0.54852421072182
H           1.57232705045769   -2.16160509778812   -1.95524546412672
