    26
        -50.46749411  Gyration_radius:  2.56219964936 Dipole_moment: 6.569
 S          -0.81303102699585    1.26908139709101   -0.04920873104838
O           0.35750019230137    1.26648887191688   -0.95110681547068
O          -1.82722693757450    0.35335778465662   -0.52352790673991
O          -0.38167337563076    0.96453042005711    1.31396457732492
O          -1.40996398735981    2.69236386095401   -0.05756623670044
H          -0.79417671344377    3.21888640398044    0.52305255499953
H           0.05329465730438   -0.60974580240373    1.46557016411978
O          -0.37206480840705   -2.93346525107616   -2.21239306687912
H          -1.05694467119435   -2.69620204019520   -1.54802799179673
H          -0.24304896182369   -3.88083755772164   -2.14486174663257
O           0.28834810992712    3.72604352690397    1.60580652408464
H          -0.01418001828494    3.21530155980858    2.36233651964661
H           1.12292219173654    3.29140531312770    1.31557411020159
O          -1.94962538257750   -2.18857197221631   -0.16904427024404
H          -2.88184565848330   -2.40194466904468   -0.10344826608561
H          -1.91896287699467   -1.20148975220511   -0.31080314539444
O           2.18073676898811    1.99062880466481    0.81935085468456
H           1.60966069628494    1.78907838033985    0.04890303282439
H           1.91546152720257    1.35494714857006    1.49123318735971
O           0.32162199836292   -1.55069009256626    1.32246568068151
H           1.05762912727037   -1.40722155282060   -0.06468377456109
H          -0.50037251609268   -2.00367213632846    1.08190362757356
N           1.29086756125720   -1.14452777359732   -1.07573904898120
H           0.76081689491276   -1.79444418615462   -1.69767687734112
H           2.28741711701341   -1.17096877823598   -1.26291281059948
H           0.91684009230000   -0.14833189749597   -1.17916013503110
