    26
        -50.44267876  Gyration_radius:  2.53839683626 Dipole_moment: 7.374
 S          -1.48577404905329    1.09964110721190   -1.95991725803149
O          -0.60672008636309    0.12036856118343   -2.55038051091146
O          -2.79555360422725    1.20153781108308   -2.48517766736714
O          -1.53569456532892    0.80585433472972   -0.41773228512833
O          -0.80382511203329    2.47563239016505   -1.95505142995745
H           0.16235203905547    2.33592502838985   -1.70849461978335
H          -1.56469604222563   -0.19577155049108   -0.19376413074864
O           0.82647286950148   -1.62774922346916   -1.29098442573799
H           0.32486457001280   -0.96750293318871   -1.83217721060880
H           1.48521206393056   -2.00003627645476   -1.87879479965276
O          -0.39054482422062    1.18197441493941    1.99850920559930
H          -0.93444956135686    0.60702534008435    2.53988454868644
H          -0.90014444072601    1.34512997537299    1.18931998747665
O           1.62883462483265    2.15620092683311   -1.20104477170275
H           1.74916580063785    1.41137467909705   -0.55165225715363
H           1.91764493865077    2.95328761371799   -0.75242704303939
O          -1.39585877667254   -1.62857070613540    0.27089235135226
H          -0.76981159833757   -1.96135834206335   -0.38999782099236
H          -0.89619538474366   -1.67486059380086    1.12368405910561
O           1.72446627591607    0.19280970668501    0.55495215413017
H           1.38359624959032   -0.51993806054501   -0.01791814194149
H           0.99018231721625    0.50911067915009    1.11503573281481
N           0.26370912707830   -1.89586885363358    2.42515025176140
H           0.02366724790301   -1.66091536962195    3.38036939347333
H           1.10500157923332   -1.38125709799782    2.18404830854791
H           0.49409834173618   -2.88204356122308    2.40366835979926
