    26
        -50.45685634  Gyration_radius:  2.51696876724 Dipole_moment: 3.103
 S           1.32135173415691   -0.87621171828146   -1.00318393938275
O          -0.12037030192251   -0.89326879771694   -0.83048706885299
O           1.74996304381070   -0.56447988087733   -2.32913654159216
O           1.92039144245345    0.11795525334421    0.00302458824237
O           1.89251578938212   -2.21635227870610   -0.55744742776909
H           1.67280556205873   -2.26803527313008    0.47402674877974
H           1.21474583333928    0.72248673480655    0.49361767350581
O           0.14289261372405    1.44431929282530    1.15338335597494
H          -0.37236064202467    0.69981961078493    1.54304525989438
H          -0.38498994141367    1.72931574633209    0.37233001750732
O          -1.25315392799754    1.51278200354877   -1.12559787017061
H          -0.70534238555120    1.91204039965873   -1.82457974957406
H          -1.00253970478613    0.56916696877174   -1.15476421477164
O          -3.22819040472532    0.91907432657633    0.76431935483538
H          -3.52403479073034    1.72698580780483    1.18639542505583
H          -2.72627525610359    1.18713634825478   -0.02113177295408
O           0.71500185427453    1.85433255479699   -2.94934988196966
H           0.74423401791358    1.96421827169517   -3.90131186566508
H           1.16341487063615    1.00780627779583   -2.76234301011321
O          -1.25262509287255   -0.79667649926376    1.58680851244813
H          -0.97531698239551   -1.00152718741550    0.67251369191256
H          -2.12939195417282   -0.38488323723421    1.48740335160283
N           1.33821964357637   -2.13352190423077    1.92804389686071
H           0.37392145375992   -1.83215778594806    2.04413048580735
H           1.94496592406907   -1.41293952956861    2.29869880538930
H           1.48016758150554   -2.98738550457701    2.45159218489907
