    26
        -50.45168970  Gyration_radius:  2.43171330612 Dipole_moment: 1.671
 S           0.42994552135879    1.36465983181799   -1.11187688623866
O          -0.79122616409390    1.57144931459114   -1.83792256045819
O           1.49290213733535    2.28752872055039   -1.28689321785552
O           0.08607903296836    1.31245152579069    0.40394918821923
O           0.97334231431679   -0.04875527731848   -1.43227824022751
H           0.26190366379432   -0.75680479646897   -1.36360772141789
H          -0.85494121271471    1.00530596369135    0.57767359635646
O          -0.75562982726058   -1.91747957272218   -1.12597557342097
H          -0.77304489500591   -1.91499080385429   -0.11125359102853
H          -0.36587594002981   -2.75502713633826   -1.38293989936502
O          -2.33023323847788    0.54412848846513    0.90444118287884
H          -2.64927151799053    0.24783264981628   -0.00344165570562
H          -2.87073669329588    1.29858738979338    1.14505452570894
O          -2.83363238849145   -0.11556254678989   -1.54160541239751
H          -2.22426319973647    0.57380326112160   -1.87081083430343
H          -2.34859605693752   -0.94739691618751   -1.63185813962666
O           1.40778629750264   -0.40421380053556    2.23795133110907
H           2.07868713311163   -0.17517682317507    1.54656491745818
H           1.01615983873269    0.43938258977841    2.47413892463829
O          -0.74557388482280   -1.73999047029046    1.42848776612332
H          -1.42349803106098   -1.07555261491421    1.59982624567836
H           0.10513768421207   -1.34456296430220    1.74302104709350
N           3.13243174269679    0.52838963532610    0.37139008506286
H           3.99869913419814    0.93403399632273    0.70563709818655
H           2.61421303758700    1.25635630262043   -0.11345432757011
H           3.36923548212165   -0.16839595682148   -0.32421783888195
