    26
        -50.47104599  Gyration_radius:  2.54650441477 Dipole_moment: 4.084
 S           0.65343224129557   -0.82787464323189   -0.32448269908394
O           0.21235106133143   -0.45601167717721   -1.65180827453802
O          -0.41014580419369   -0.58839749958301    0.67078313049065
O           0.94976725420143   -2.34586679872919   -0.31561912557451
O           1.86763554431573   -0.11095137123855    0.05963115501098
O           1.30014436278724    2.06565015057515   -1.30770403243956
H           1.04337759091717    1.59645928083371   -2.10940222116932
H           1.73480864453149    1.36702247337107   -0.77137580090701
O          -2.36604200998574   -0.93846153809158   -1.37117769976760
H          -1.42867413525543   -0.83451706556917   -1.64321351423480
H          -2.31484225932564   -1.22067768496905   -0.45341364470600
O          -3.01582532878216    1.60716145435113   -1.45217356247315
H          -2.95936251689145    1.87128923572867   -2.37205251835751
H          -2.92293115501531    0.61689276793543   -1.44947231191076
O           2.78520980435126   -0.80274404196070    2.44386312907617
H           2.49139846403145   -0.45109852605425    1.57525337997491
H           3.69619879063945   -1.07645555491136    2.32397683657010
O           0.72931989368717   -2.50892092218064    2.23647864140227
H           0.04166460891967   -1.84012980614720    2.11107311314638
H           0.92962698280661   -2.60814682184829    0.65332379718154
H           1.52042804926769   -2.00627318046242    2.52783480858901
N          -0.91577967696287    1.92456794739189    0.13906140486989
H          -0.05536582592260    2.15391510381927   -0.43919298359549
H          -1.77721559734441    1.93119527005576   -0.47649545520450
H          -0.77250090153630    0.92498084535258    0.47058625751498
H          -1.01667808186071    2.55739258273280    0.92571819013341
