    26
        -50.44859322  Gyration_radius:  2.50068525685 Dipole_moment: 4.922
 S          -2.01173515132516   -1.01551208334875    1.09983802928986
O          -1.92527196360066   -1.58134209153309   -0.22776222318716
O          -2.82899298706558   -1.68934807459376    2.03514724180413
O          -0.55269352463303   -0.87416084643514    1.63015001687388
O          -2.47458853963413    0.45690290051290    0.99490751605531
H          -1.75401655292838    1.01529709346780    0.58754257506116
H           0.06215197075847   -1.22542824670338    0.88757869163323
O           1.13305495951514    1.35169840117760    2.01655745057379
H           0.67261625219597    0.57902392151824    2.36436817459193
H           1.89135604878618    0.99274967852147    1.48145326579525
O          -1.75893644653177   -0.35389139077352   -2.59757858517972
H          -2.29016050159782   -0.82756083451905   -3.23838487383973
H          -1.91401474552452   -0.78979273401210   -1.73615042640986
O           0.69648261616421    0.45120314504007   -1.81013100604477
H          -0.07183799684256    0.20761388206510   -2.35643490314072
H           0.33979928838372    1.10727130475019   -1.18873948624640
O          -0.52777552854372    1.94921384081382    0.15644371812180
H           0.13360903618058    1.79290123114469    0.91021238542485
H          -0.79181845189235    2.86948373581394    0.20646426818113
O           0.76457050214364   -1.73258396648998   -0.34540232704793
H          -0.00513609168756   -2.21147521791413   -0.67659503340129
H           0.83782139461318   -0.92510634969945   -0.92912871647876
N           2.95322195773429    0.24874441108813    0.37599032557396
H           2.68727951522309    0.54100960438315   -0.55787018030566
H           2.78933230747808   -0.74987609055212    0.43194030816125
H           3.94568262261675    0.41296477628211    0.48558379413258
