    26
        -50.44597335  Gyration_radius:  2.55624548039 Dipole_moment: 5.461
 S          -1.85631269589320   -0.34464768044265   -1.57318464843085
O          -2.59517872292537   -0.03744265706611   -0.37010760355112
O          -2.19884640934490    0.38141996977829   -2.74054850871953
O          -0.33615921420531   -0.14932061560263   -1.25527582670678
O          -1.88550778412397   -1.85923788202474   -1.82165608745618
H          -1.76654222944129   -2.25253909554110   -0.90273882279784
H          -0.12931185227110    0.81511112449569   -1.06395186137978
O           2.74032681014786    1.85772679321620   -0.14200151355700
H           2.68412636821577    0.85525211037571   -0.16078751614916
H           2.96648658180230    2.09648093426489    0.75844700253203
O           0.26150873375880   -1.04358373106311    1.99670713109115
H           0.18010666647425   -1.20233135329196    2.93878381076115
H          -0.17819537488158   -0.17071512772997    1.82778615872222
O          -1.07781531720724    1.17885558769825    1.47796651692894
H          -0.61552113630008    1.82632708777078    0.93294853299345
H          -1.77186183307614    0.81203525535675    0.89790830865686
O           0.25659876462281    2.30953581803697   -0.74501055214831
H           1.23449023330020    2.21650317297331   -0.53531744889166
H           0.19222918722834    2.81317987368261   -1.55860820607314
O          -1.71344710262231   -2.36998711801674    0.67728731323341
H          -2.35074239330402   -1.64630279666112    0.75620575682581
H          -0.89071522174626   -2.03271009074643    1.09285427295623
N           2.32825815125998   -0.75935642474625   -0.11806886341171
H           1.65876077857191   -0.86472383638634   -0.87292891427368
H           1.81767792248691   -0.96559204709481    0.73669859372565
H           3.04558707945122   -1.46393731123623   -0.23340702484738
