    26
        -50.44795670  Gyration_radius:  2.53693458361 Dipole_moment: 3.856
 S           1.29662729412884    0.32012330177851   -1.61434979907003
O           0.28186097615704   -0.67159299185893   -1.30369109793233
O           0.88168737558596    1.33987495454825   -2.50724686457059
O           1.82868250415873    0.89316516640094   -0.28585011633010
O           2.54226857394164   -0.40751363809841   -2.14313828061731
H           2.85373787378498   -0.97372314497265   -1.37615501768359
H           1.10162135140075    1.45435755880898    0.20977416816083
O           0.58071004361889   -1.93727803737694    0.92978304357477
H           0.37862653141726   -1.47034546372646    0.08087517111845
H           0.17805593199016   -2.80521838107287    0.86144924196142
O          -0.91265470855455    0.10231403090888    2.19545603734732
H          -0.37210845179880   -0.64694582203039    1.90246250891346
H          -1.77790253221736    0.02847842260059    1.70571562715193
O          -1.93948622420954    0.81357084777432   -1.86888641628401
H          -1.23070704772612    0.16370916326698   -1.75634102060409
H          -1.50718144328096    1.57158521956119   -2.26971320725784
O           0.08445817363993    2.13146471130650    0.99191609892896
H           0.48488862993850    2.70350284298211    1.65005595386654
H          -0.34879365504877    1.36486505463820    1.50246059217008
O           3.13856391937982   -1.60192780735959    0.07174844096581
H           3.46699890270473   -0.83862276559648    0.55419778731920
H           2.27888844510447   -1.82869122980368    0.48542102999982
N          -3.12011690361579    0.04355163103930    0.68770010471840
H          -2.76072051522515    0.40037055845301   -0.19871120093769
H          -3.83241975762510    0.69015420389265    1.00380186702794
H          -3.57558526732011   -0.83922840606657    0.49126533944069
