    26
        -50.45025281  Gyration_radius:  2.45002674443 Dipole_moment: 5.390
 S          -0.99360142228215   -1.75825258078615    0.63197695913514
O          -0.71754801106305   -1.52525993835371   -0.77007383760580
O          -1.59639762761999   -2.98955396700593    0.98065404780628
O           0.31856867808776   -1.57003291086409    1.42426739231725
O          -1.88345974048048   -0.59901043658098    1.15441256606543
H          -1.72894436560533    0.27163196612187    0.64246869730388
H           1.07168095754627   -1.06236685544602    0.87371761304934
O           2.04923002497843   -0.25855225647438    0.22037393872585
H           1.94210949696827   -0.38750133547228   -0.76655721208071
H           1.78084469978051    0.65410320903101    0.42911311840724
O          -0.13834240514706    0.55362119414894    3.10304736539128
H           0.11770008287020   -0.32303854653978    2.77066352226087
H          -1.09797266280260    0.57765583043236    3.03951779460489
O           0.92669514587444    2.04282761788944    1.18641391266501
H           0.57524858687174    1.55678643511157    1.97639922107486
H           1.36341998806057    2.82688171998314    1.52157809304750
O          -1.27144427992754    0.42472090424958   -2.47472790780963
H          -1.07178260283455   -0.36330893064824   -1.92381304511049
H          -2.12783227082784    0.26288723197863   -2.87382061975160
O          -1.45310476734710    1.58542394091598   -0.06855188572103
H          -0.58317581308125    1.89368175275262    0.24031600945115
H          -1.35835026479257    1.34855858384770   -1.01556238820105
N           1.59374664800758   -0.70295324566266   -2.35174674869284
H           0.89714913091144   -1.40985302113740   -2.13673715231099
H           2.27247218531688   -1.10136509209222   -2.98712191169709
H           1.11309058853301    0.05226871061935   -2.82620754231698
