    26
        -50.44771735  Gyration_radius:  2.5423876537 Dipole_moment: 8.737
 S          -1.15616647242995    1.56280493393641   -1.82910860262828
O          -2.11568557817101    1.24565691166862   -0.79597678039908
O          -1.31234188337566    2.80318065676046   -2.49098511466564
O           0.26590669572148    1.49258553283892   -1.13332335430051
O          -1.04583906177745    0.42933503126949   -2.84059612373794
H          -0.88528375167837   -0.49119175440724   -2.37610240187635
H           0.10090063476736    1.86810889722480   -0.20221159413948
O          -0.19222220572075   -0.10790306279786    2.46197224070711
H           0.66403431626109   -0.54887776769801    2.18556116549099
H          -0.27211166185796   -0.21399490607204    3.41066806751666
O          -1.90727933215846   -1.09606062506353    0.51047268614882
H          -1.36789960349116   -0.82001817312267    1.26904836435982
H          -2.20457486686066   -0.27197261361096    0.08364277470854
O          -0.52338778149679   -1.70797817096794   -1.62897483526296
H          -1.06411622225739   -1.64352634117382   -0.79814733073542
H           0.40412621270106   -1.55618372768695   -1.37801831008537
O          -0.52901064865585    2.23121447648996    1.14719872855472
H          -0.38814405382093    1.44545195900732    1.71699997652698
H          -1.42670819503006    2.14494158970347    0.79300960876558
O           1.97277906499888   -0.61363582708537   -1.19474173675442
H           1.46633193931000    0.22053851661632   -1.17606847140543
H           2.47230299715130   -0.60818670276945   -2.01350892683206
N           2.04101938073382   -1.31928450175042    1.68190001333911
H           2.12634477192929   -1.10358394002657    0.69170561369199
H           1.98386661454921   -2.32653783993981    1.76967309065654
H           2.89315868068151   -1.01488253135538    2.13591124233941
