    26
        -50.44574324  Gyration_radius:  2.68221698611 Dipole_moment: 7.242
 S          -0.32779975453254    2.47486509924339    0.99492283958058
O          -0.96874405684661    1.53589438403694    1.89001281721457
O          -0.36415260276114    3.84195081103323    1.35658461090044
O           1.15227433984203    2.00599931420505    0.81421320725493
O          -0.92758886293618    2.29848812904314   -0.41166891330386
H          -0.44276033195088    1.59254445862147   -1.00634372878343
H           1.22583436509517    1.09198649175594    1.28476804674917
O          -0.13744564389682   -1.41262181287737   -0.10943516436251
H          -1.04444669458114   -1.07208713599555    0.07522828883406
H          -0.23741888698868   -2.37487247570846   -0.28696183176633
O           0.26430278835502    0.59520284738428   -1.81799657905390
H           0.23331093727710   -0.23374564641756   -1.29155495751914
H           1.19833383937942    0.89013852790018   -1.83294975831064
O          -2.40676428292028   -0.12076939174829    0.39781125596721
H          -2.01137350626243    0.48843319661705    1.05524739511447
H          -2.66622247014249    0.43696798756110   -0.33954669425443
O           2.68163827860787    1.74275247285033   -1.46942752184040
H           2.83015571226620    2.58150332756495   -1.90988580945784
H           2.39294414374873    1.94725461189377   -0.56655621193533
O           1.03577898465464   -0.23046426600099    1.95488409014465
H           0.23841336796881    0.06721230061044    2.41704461137277
H           0.71639033007049   -0.80719428567928    1.22032523469910
N          -0.55503730234850   -4.07284628046675   -0.56392759432833
H          -0.48820771053796   -4.30609486685319   -1.54684469926352
H          -1.48991031035765   -4.30310355321916   -0.25008144801825
H           0.09849531980123   -4.65739425535383   -0.05786147561819
