    26
        -50.46159118  Gyration_radius:  2.49970922824 Dipole_moment: 3.823
 S          -1.45333742589303    0.52701288072397   -0.48501766065516
O          -0.27734735132946    0.57371265091018   -1.35211159337672
O          -2.65943133489730    0.21756817753703   -1.21235965630326
O          -1.21563620052735   -0.45290620958856    0.60170291538115
O          -1.61469853189205    1.91411300029380    0.18382916062354
H          -0.68849167416330    2.23298101876005    0.37384432255031
H          -0.70774489535471   -1.67123689059556   -0.13510161211389
O           0.76819952478175    2.73763714472063    0.78288770757407
H           0.96390292992428    2.34332859848990    1.67249777880839
H           0.77461822131635    3.68933508251559    0.90036485615435
O           1.09697744016900   -0.75481095356479    1.91106123926419
H           1.64412151781482   -0.72406562999462    1.11157579727782
H           0.18364711965741   -0.64272820248313    1.58056601980953
O           1.12791227434153    1.58742266077365    3.13260934300484
H           1.24111194763530    0.66857891777604    2.78190424225290
H           0.32130546994606    1.56782874829823    3.65083029714930
O          -1.52769285847303   -1.38737757356391   -2.92166370097858
H          -2.13026545617937   -0.83037727769212   -2.36625747970142
H          -0.91693255162130   -0.74607568592575   -3.29779984663518
O           1.89858539326055   -0.67291402204433   -0.75764642754048
H           1.11328867810688   -0.09535967062513   -0.96751593557915
H           2.65900284903599   -0.22517079969254   -1.12989010842226
N          -0.24939198082695   -2.34984194795186   -0.83930992686769
H           0.74216993257296   -2.06817725656580   -0.88990034243511
H          -0.73506027876214   -2.11809410362452   -1.76357850867741
H          -0.35881273858317   -3.32038264701480   -0.56552088059908
