    26
        -50.46600843  Gyration_radius:  2.57577243089 Dipole_moment: 5.934
 S          -0.13369855871863    0.58779485487232    0.42121777362394
O          -0.66304761807135   -0.76671561776363    0.63535645126712
O           0.74506061997891    0.62923981889496   -0.73987778576311
O          -1.21720434193827    1.55802523741319    0.29312986972215
O           0.72550338219159    0.96147753143788    1.64831543708093
O           2.21094467222474   -1.85016516568576    3.04052180587439
H           2.18293582261837   -1.90185314657859    2.06208073669717
H           2.89624088658188   -1.21521798087817    3.25545518019361
O           0.33164747334845    2.07820034461904   -2.89473404566327
H           0.61124582402815    1.51949502832516   -2.13041552741828
H           0.68957048625826    2.95051533427133   -2.72202194318156
O           1.82881060188348   -1.66639056532982    0.36083112106217
H           0.86395373833486   -1.59811089422328    0.46767877199968
H           2.05506662092023   -0.85752629386551   -0.11212159778483
O          -1.38892443859749   -1.30173958302165   -1.84080305466679
H          -1.20879724646229   -1.21826287101162   -0.87646097735475
H          -0.53252747060898   -1.46572609867301   -2.24371090421738
O          -0.19116981974977   -0.70469901208959    3.33172720283995
H           0.35936571992107    0.43081423566164    2.43091347752913
H          -0.69363087169110   -1.09654297681266    2.60412936121405
H           0.63493471252394   -1.23773093982826    3.40733879775646
N          -2.05966490636669    1.24656983114244   -2.10824299053861
H          -1.27633548718754    1.68926390282552   -2.64541430229332
H          -1.94695812329853    0.19907734167674   -2.17103508655801
H          -1.84568056790961    1.46755583929249   -1.07441550741271
H          -2.97764110021979    1.56265184533079   -2.39944225402489
