    26
        -50.45895123  Gyration_radius:  2.41694879116 Dipole_moment: 6.478
 S           0.27163484819312   -0.01788407738923   -1.90486233829068
O          -0.33054662985786   -0.81489141688946   -0.82651412326095
O          -0.69663442432075    0.57339463722388   -2.77360682517350
O           1.09031713481206    1.12466504936853   -1.17084250966938
O           1.33839938133262   -0.78842227147801   -2.54907753749731
H           2.09667051947139   -0.99188453409691   -1.38501206026530
H           0.55224781560742    1.53025270905994   -0.45344123824909
O           1.48699148873589   -0.09347014480662    1.69761791815268
H           0.71611299732387   -0.65006141212675    1.90238269265185
H           1.11172926603270    0.78358753253522    1.51838085664644
O          -2.34970832463213    0.92697638014005    1.41415323939379
H          -2.01917064052129    0.08292468546596    1.75877127701918
H          -2.70551576594576    0.70938630925554    0.52431375509408
O          -2.84849556281914    0.05948325640373   -1.07138762141747
H          -2.80687386890430    0.59022116588290   -1.87189626225149
H          -1.97901610825096   -0.38330739098940   -1.05251300780381
O          -0.09148862464821    2.09080996543006    0.96505068217136
H          -0.99352420413899    1.67783280058380    1.15209957548784
H          -0.21753990172279    3.03971526103341    0.99849439748018
O          -0.89298640404171   -1.45500751374092    1.64569018144953
H          -1.29988162761218   -2.32199972309432    1.66556534973345
H          -0.72438587416466   -1.25398709784425    0.69648960997549
N           2.69305421194471   -1.09490644838059   -0.43976695049083
H           2.15049734458211   -0.66894918450266    0.38036137947930
H           3.56006524092432   -0.57927803895089   -0.56128780399625
H           2.88804770197099   -2.07520047770120   -0.25916264728527
