    26
        -50.44969262  Gyration_radius:  2.45356769456 Dipole_moment: 6.652
 S          -1.45783229588652    1.34612757048484    0.91661091126379
O          -1.81701404020931    0.73591533744512   -0.35129349145699
O          -2.51090077513379    1.45266873544938    1.85963942642793
O          -0.28349850709923    0.50176015860189    1.51256489266690
O          -0.77122679957705    2.67821472328229    0.67080365312939
H          -0.03363431715175    2.48722111054744   -0.02660859273425
H          -0.56224349078889   -0.45985488260437    1.57630424571464
O           1.76320182889105   -0.54869231083055   -0.89093260816498
H           2.58338284453145   -0.73210254102537   -1.35150779414309
H           1.89889829933970   -0.81613977898790    0.06269762390023
O          -0.77106636903861   -1.60927618902435   -1.09748031356055
H          -1.26616454958618   -0.77908934326312   -0.96136367985089
H           0.15794843265701   -1.33315742628344   -1.17971019704939
O          -1.02923850827818    1.41819771533789   -2.83470904342636
H          -1.02529349875669    0.58627609674048   -3.31290072751702
H          -1.52353119613758    1.25484127994201   -2.01104950664058
O           0.91977495323389    2.04829614033604   -1.08753393596085
H           0.33586725619879    1.98084931498199   -1.87218972435331
H           1.24633246808194    1.13972036885698   -0.93033533411528
O          -0.99500563138469   -1.98099354716822    1.47117170415051
H          -0.91911296738141   -2.03669124290133    0.47548691553466
H          -1.92959293019960   -2.04859658005942    1.67682367282876
N           2.04217410553255   -1.28097349619612    1.65483559306421
H           2.88590798118889   -1.61984744259630    2.10000519899439
H           1.30516655261433   -1.95918209558937    1.81291186972116
H           1.75670114431774   -0.42549167548805    2.11775924159129
