    26
        -50.44969253  Gyration_radius:  2.45358016059 Dipole_moment: 6.654
 S          -0.66843821559523    1.35011509599589   -1.58401926568480
O          -0.71227515050789    1.84646728144836   -0.21995824228820
O          -0.25793838216244    2.29216109455382   -2.56052941670504
O           0.29162370327997    0.11499900436716   -1.58916549398286
O          -1.99368947598383    0.69819767093258   -1.93759207330504
H          -2.19681892532238    0.04239641195088   -1.16569925456121
H           1.18208025105512    0.38265934459556   -1.21239844103902
O           0.93721839612340    0.88398387479199    1.65189109924179
H           0.60425946925237   -0.02944819738076    1.68167798093186
H           0.29949760473989    1.36299723215910    1.08914224252251
O          -2.53132039814378    1.34194883217128    1.70092830063708
H          -1.97061030226898    1.74110552562720    1.01121544626488
H          -2.02598251299322    1.38816687638017    2.51533628896998
O          -2.36643833202436   -0.78782102768606    0.06243350256536
H          -1.51154909937230   -1.13238987236568    0.39006081868219
H          -2.64629544552429   -0.12023502443682    0.72369708343977
O           2.49289609602006    0.82080147932176   -0.43683416915589
H           2.70071666371489    1.72673987526957   -0.67436406590372
H           2.06626483543390    0.85553838397386    0.46702427884128
O          -0.03741231415311   -1.65477242550539    1.21063890385903
H          -0.13940218521106   -2.41862349109463    1.78036315683078
H           0.64183423596962   -1.89666738188422    0.51817753921037
N           1.79631590876371   -2.21697024728766   -0.63756010808661
H           1.27930243939979   -1.98005723929853   -1.47680789352806
H           2.25705616549724   -3.10625215628349   -0.78539007410948
H           2.50910496002247   -1.50504093029777   -0.52226812364163
