    26
        -50.45477942  Gyration_radius:  2.80089913328 Dipole_moment: 8.769
 S           0.57782910130153   -0.50613741149331   -0.72744984276857
O           0.68538998521815   -0.77498345546917   -2.23521433591818
O          -0.84404600976778   -0.51446325549816   -0.34495436199104
O           1.29720038035722   -1.56839085957017   -0.03754020619884
O           1.16560397138802    0.80654082960137   -0.44336779402654
O          -2.45040999521901    1.07345191409143   -1.70058937455927
H          -3.16440486304732    0.49742669773443   -1.97879114494255
H          -1.87195751505162    0.52640988626140   -1.12170358124552
O           1.12782481653912    1.31677483538138    2.13476512563969
H           2.02115732211050    1.57775681624432    2.36329211539617
H           1.11805660151919    1.23271649855279    1.14958196005892
O          -0.93992063428066   -3.05853536169860    3.83443910543853
H          -1.86132308721658   -3.26854924167167    4.00022868784995
H          -0.47303572843619   -3.88656140577077    3.70101050809669
O           1.41336200423662    2.72976454737186   -2.25286127540589
H           1.32602495917810    2.09832443584098   -1.50638196258026
H           2.29977245249602    2.60891954157902   -2.59713514192023
O          -0.41301716165103    1.16217512202498   -3.43769210780020
H           0.23363271336334   -0.01676834265842   -2.77123101968993
H          -1.23543664871674    1.27721927603828   -2.91301669361211
H           0.18140565334382    1.89131055089276   -3.15788226915497
N          -0.05350511624428   -1.05715268099712    2.06522066820536
H           0.35955765496954   -0.16643881811008    2.42041958735155
H          -0.38622966952681   -1.69702883615873    2.79671282511230
H          -0.77773541695576   -0.80244897718784    1.35959061679682
H           0.66420424009139   -1.48133230534166    1.40054991187693
