    26
        -50.44639633  Gyration_radius:  2.51488244583 Dipole_moment: 3.602
 S          -0.35459898619619    1.59215776639641   -1.69028962588715
O          -1.34910371824589    2.23233934091693   -0.87340496097083
O           0.09141538141714    2.24276810354412   -2.86353711179815
O           0.88294711190980    1.29276327775843   -0.77618850547904
O          -0.84881701579821    0.17445836548993   -2.07785793224899
H          -1.21441502193286   -0.29690187822645   -1.26949230110544
H           0.64918149891297    1.40613340913224    0.18792119362461
O           1.50743821363902   -0.77913875827728    2.43583143907099
H           1.17989031738234    0.10666014488326    2.21332015874340
H           1.18529288097981   -0.98059478149098    3.31591394717460
O          -2.22746448784142    1.14834625859136    1.39220166067301
H          -2.23044034145643    0.23157227417693    1.07308442917462
H          -2.19151196905600    1.68898937244839    0.57992742461225
O          -1.69676839997693   -1.13858412128565   -0.03281236021792
H          -0.82581539059948   -1.63217248346750    0.19848921789360
H          -2.30532986186825   -1.81442728001277   -0.33625429234513
O           0.28097292536264    1.61105911813597    1.73303747510181
H           0.37770665955811    2.54364844024681    1.93411953881266
H          -0.71163651028671    1.42498302198563    1.72448584086657
O           0.50751507771302   -2.31235706459000    0.41235914923787
H           1.02514109087650   -2.07753383497498   -0.39709316721036
H           0.95433189920859   -1.85538658733588    1.15052474483097
N           1.74523520793281   -1.36295249093816   -1.80001705967555
H           2.64830594259371   -1.66886978066134   -2.14002745811321
H           1.82706105186961   -0.39114719385731   -1.51887919244710
H           1.09346644389874   -1.38581264860469   -2.57536225231327
