    26
        -50.44794335  Gyration_radius:  2.71224343052 Dipole_moment: 6.455
 S          -0.29973632097305    0.87197410091009   -0.96615443908699
O          -1.45605929333415    0.40280628766934   -0.24338672318958
O           0.21970213549910    2.13250350948399   -0.54475141503974
O           0.79918094776578   -0.21397249683989   -0.87778530544516
O          -0.59732439247935    0.91357395539087   -2.46699630640486
H          -1.00243806069791    0.02671760011088   -2.73683824189671
H           1.08295124705904   -0.31068391503438    0.14058951963472
O          -1.29278442129343   -0.14371268206389    2.29272264440510
H          -2.04817469456981   -0.68821341214542    2.52069965677898
H          -1.42269494184848    0.11323184175523    1.34583644356037
O          -0.49315465232361    2.17754650292242    3.55876353525149
H          -0.88756751210501    1.39547162297733    3.13391935039408
H          -0.23194383193838    1.91047643972654    4.44165606065448
O          -1.43495423183722   -1.36881619310586   -3.26340185951186
H          -0.65704554959817   -1.94221703786937   -3.01132441918277
H          -1.45741502970938   -1.33334561930712   -4.22225498314589
O           1.60343573080376    2.21979599557089    1.79720466145475
H           0.90403915693159    2.42397226641417    2.44729673860666
H           1.21375071031084    2.42035521269720    0.92958116793146
O           1.34502969314462   -0.34274847116617    1.54158927430013
H           0.47523125961164   -0.45036053486666    1.96427830084120
H           1.60168762082596    0.61567070505834    1.71150689607242
N           0.77762609150922   -2.65335556976416   -2.50895139950144
H           0.67875042449889   -3.48452896501607   -1.93980421357966
H           1.03525968710858   -1.88589527001811   -1.89216603543533
H           1.54464821764043   -2.80624585346338   -3.15182890846781
