    26
        -50.45016077  Gyration_radius:  2.42263797554 Dipole_moment: 3.798
 S           0.96548860268064    0.68946160337751   -1.10395615641439
O           1.03184032626830    0.82694496088126    0.32458665564012
O           1.39931888027966   -0.56467696688517   -1.62967471145627
O          -0.46838154191267    0.95521836853066   -1.58541530376347
O           1.78059334253702    1.82882043849023   -1.76597106981511
H           1.47422539425555    2.64334142183713   -1.30819403492159
H          -1.07319192367685    1.32477776466738   -0.81714244882381
O          -1.86876413044454   -0.65134927850804    1.15018373949770
H          -1.63893267369833   -1.17561470779564    0.36268915114439
H          -1.09804378475727   -0.76843063988230    1.76505865100478
O          -1.91594675070638    1.73125644856332    0.29030209614059
H          -1.90442518099642    0.80943718203557    0.75465653783324
H          -2.82307097511084    1.85479866656993    0.00024340707030
O          -0.99460523439441   -1.84402346178301   -1.21143903525143
H          -1.54421187056540   -1.59881941690727   -1.95833769724723
H          -0.10879095200724   -1.49869815719897   -1.40707142110658
O           0.55180739420066    3.41296271909801   -0.04786781562432
H          -0.40744955205000    3.48394464688169   -0.01651667535335
H           0.76793700267184    2.66968148014420    0.53643378769757
O           0.43457925868747   -0.90520148017832    2.40514012211459
H           0.79278128248400   -0.15967064235218    1.90607726035991
H           0.80370627590772   -1.69191656185717    1.94986506931027
N           1.40708357130801   -2.72714887401646    0.59743514445238
H           0.58646877165197   -3.17607006895251    0.20729429875433
H           2.13165752686463   -3.42881046757303    0.68429304890121
H           1.71832694052418   -2.04021500718616   -0.08267259014142
