    26
        -50.45192237  Gyration_radius:  2.49131676779 Dipole_moment: 5.219
 S          -0.65172100380507    0.94804629418750   -2.07120985595424
O          -0.99088600110487    1.91782333564735   -1.04563979610728
O          -0.50693665489472    1.45029860671273   -3.38619182583527
O           0.65078428488123    0.23591643967185   -1.59645801668075
O          -1.66874354624673   -0.19794570359776   -2.06253230738252
H          -1.78935086103238   -0.56949712907492   -1.11909227301919
H           1.12548724460804    0.90012231004406   -0.96571121159809
O           0.62486975770186    0.81110187171529    2.17361235867955
H           0.63023239335863   -0.14460936800337    1.99758982401589
H          -0.30200796613359    1.08790551250884    2.10273845560271
O          -1.94109247958207    1.47840833997063    1.33965364765220
H          -1.60823395491170    1.71472939019380    0.43884178670291
H          -2.64773724258962    2.09421399368796    1.53763729230656
O          -1.92676592703136   -1.03766423543418    0.32396108479192
H          -1.08724210618295   -1.39552564394043    0.67798097643413
H          -2.09680978678481   -0.22033495613201    0.82681002327605
O           1.56962370203100    1.93937693833949   -0.00130482487533
H           0.87968024266206    2.58651691579605   -0.18753111952027
H           1.34108557381426    1.54955570412770    0.88822633729805
O           0.43165393169507   -1.84118830711175    1.40000368729859
H           0.47933278875119   -2.61779730988988    1.95890680852371
H           1.04623139751142   -1.99790186213194    0.62498793409226
N           1.98388369990957   -2.19977438837018   -0.72158201492193
H           2.97223673794757   -2.01720041649108   -0.59988179558487
H           1.59587233776389   -1.43033669270574   -1.26240856703514
H           1.88655343766830   -3.04423963972327   -1.27140662815904
