    26
        -50.45025694  Gyration_radius:  2.47455771471 Dipole_moment: 4.736
 S          -0.84695956014365    1.22838669276825   -1.90667161764311
O          -0.59638957558840    1.51344486617894   -0.51143415878242
O          -0.73855018801448    2.32374769166737   -2.79737981936523
O           0.09293063026764    0.06274168944019   -2.33070428020010
O          -2.22681817697240    0.55681333012073   -2.04630988719347
H          -2.15677716926095   -0.26986654740470   -1.49103312120811
H           0.95169628716004    0.04310741514912   -1.80818666194414
O           0.29255297473653   -0.70945313992093    2.60691168323289
H           0.05297058710716   -1.22868513370225    3.37543069708360
H          -0.54441786232151   -0.28247175308369    2.28675043567146
O          -1.89013615669504    0.29072489182445    1.49936538701541
H          -1.47897597969589    0.87129346539637    0.83066191810486
H          -2.26391695926657   -0.43967916421555    0.99281418090075
O          -1.89698722232212   -1.57981848460792   -0.62403096762761
H          -2.13204134774209   -2.34126035373192   -1.15744430684427
H          -0.94178065220610   -1.72214332666300   -0.35184672269712
O           2.28636030966030   -0.07428529074404   -0.99657881054989
H           2.16461078960080    0.50846778457537   -0.16051984143888
H           3.01061704955391    0.29896292853042   -1.50090709871235
O           0.54708728697062   -1.96905949622896    0.20172440694563
H           1.23478545877028   -1.51430590569418   -0.29918818123192
H           0.56161470187697   -1.57141362166571    1.09606935098128
N           1.77389113212786    1.37144845190005    1.08429249762272
H           2.31691923812853    2.13862846126421    1.45712283224822
H           1.52140704167703    0.75324965906050    1.84923031405673
H           0.90630735258801    1.74142487978893    0.70186177157544
