    26
        -50.45202661  Gyration_radius:  2.53358194203 Dipole_moment: 3.422
 S          -0.03015023700422    1.72285653294178   -0.07899370028266
O          -0.01811169129488    0.77442688375719   -1.16946214787732
O          -1.18246701073166    2.54191960474274    0.04482261153818
O           0.15854030670263    0.93084065669166    1.23966132701337
O           1.20643193027051    2.62519701668480   -0.17526343867115
H           2.05530748764532    2.09434226350765   -0.34987052783229
H           0.61707470150418    0.05079338588560    1.08498691114785
O           2.09589420344238   -0.82192481235857   -1.61157296268758
H           1.25882568223975   -0.33142267607108   -1.70537044228238
H           1.99737836834708   -1.30989428519639   -0.78207738005919
O           1.26464641051912   -1.38729061548315    0.97015971985561
H           1.58205405700327   -1.62860336058094    1.84229262628264
H           0.47173143730053   -1.98301641920382    0.78177303216927
O          -0.78321042084974   -2.84535961863658    0.42124277847675
H          -0.64453013611066   -3.52880924628933   -0.23668246483117
H          -1.37138665350131   -2.16267532461826   -0.02139728995805
O           3.31255603558425    1.29165077277269   -0.70076973372897
H           3.79241469392190    1.74206613241914   -1.39874436706654
H           2.96719368786593    0.43958298384771   -1.09447489452512
O          -2.10483414243048   -0.97924741019849   -0.79553635847922
H          -1.42017579248928   -0.36668639231009   -1.10606209012890
H          -2.61906867511362   -0.46514890730212   -0.12825493826040
N          -3.12038823162715    0.67821175977426    1.07963763914056
H          -2.55003225896621    1.46117541997508    0.76539913077320
H          -2.85010680331415    0.47338574367796    2.03351019468905
H          -4.08558695891134    0.98362994156941    1.09104676558932
