    26
        -50.45202668  Gyration_radius:  2.53344617357 Dipole_moment: 3.432
 S          -1.35652236202485   -0.42720273943426   -0.97538990471391
O          -0.49306486720565    0.72553840866664   -1.09522434686724
O          -1.34915310178259   -1.34783717165288   -2.05535939146797
O          -0.96391368877408   -1.18052027939937    0.32076022572379
O          -2.79818027728161    0.03910501952216   -0.73693651104680
H          -2.85403289252912    0.76448998304154   -0.02728453483477
H          -0.51109956394621   -0.57539313843459    0.98233329559617
O          -0.41167451051119    2.61560051553496    0.81079591183983
H          -0.04429892078962    2.02751200827537    1.48533795882832
H          -0.30392743668750    2.12431535988632   -0.02417347020563
O          -2.91418096368669    1.91816543961724    0.97948909643364
H          -1.98808131979697    2.29559541674241    0.98667019497978
H          -3.48904736203933    2.60699611735198    0.63990337868813
O           2.10336531762490   -0.17103821206806   -1.25403589830771
H           1.92569951334346   -1.11956750551436   -1.46041519499299
H           1.24049381723119    0.26497045418557   -1.33004953760859
O           2.70334726540250    0.04326562931490    1.25684028915854
H           3.23555927877078    0.83790038093687    1.32389325875879
H           2.54538995084880   -0.09125942453886    0.27461386478868
O           0.27389400097986    0.24934386623895    2.07910295585314
H           0.19380991774106   -0.22757925362584    2.90718452339065
H           1.23719503629245    0.15852375324832    1.79109950055694
N           1.18020102976494   -2.67380089189177   -1.67803888396898
H           1.08879188567014   -3.24857896596698   -0.84969823091279
H           1.50080378086066   -3.26816911234157   -2.43233234159734
H           0.24862646255615   -2.34037567778445   -1.91908621810776
