    26
        -50.46414204  Gyration_radius:  2.44069562154 Dipole_moment: 3.676
 S           0.88096452873625    0.90319919385477   -1.12280271544172
O           1.46337730537912    0.32315928121987    0.09733075959435
O           1.61972919789585    0.46807152643000   -2.29562726240330
O          -0.53931122177516    0.56222680951742   -1.20242637938796
O           1.00834330055739    2.44150795246740   -1.04159798974260
H           0.44722050402720    2.78512423049304   -0.28822788523606
H          -0.80994368445498   -1.10890552891685   -1.45146218535080
O          -0.72985123627542   -2.08154153832359   -1.33971802812315
H          -1.09753155016940   -2.25493729643686   -0.44334320919932
H           0.77186728348951   -2.15630243480695   -1.33584210973093
O          -1.92107457122471    1.05199467924407    0.99717028344209
H          -1.54938292757565    0.82909325652626    0.11572604164432
H          -1.33050608837460    0.61174811275867    1.63246655108145
O          -0.58369432740126    3.30794999470047    0.82003833581181
H          -1.18780957220686    2.53200021403270    0.97174532374154
H          -1.12223595660908    3.99593207543413    0.42444712796809
O           0.14687013551389   -0.24573028811392    2.24770652011392
H           0.63963635513114    0.10278353181266    2.99147432894016
H           0.66996490070583   -0.01244814412697    1.43571097666689
O          -1.63728121987928   -2.06268057494094    1.18211436305014
H          -2.37850618417750   -1.45176479286967    1.13034230797438
H          -0.94922380931543   -1.59470160101867    1.68128480576130
N           1.82772441472573   -1.87285165526690   -1.31105933138468
H           1.87944501745568   -1.01253280937261   -1.95043861673747
H           2.47282625657092   -2.61770102963239   -1.55100019513646
H           2.00838315931133   -1.44269318463862   -0.39401181791556
