    26
        -50.44818766  Gyration_radius:  2.47599652344 Dipole_moment: 7.679
 S          -1.37766207167774   -0.08266978982101   -1.96398844735215
O          -1.48746844974959    1.11670443017592   -1.14760175820852
O          -2.10424216964613   -0.07682098556785   -3.17786454634458
O           0.14155846745803   -0.32793384430854   -2.20238517863749
O          -1.80141665924040   -1.28549517249177   -1.11430700894604
H          -1.07797132069560   -1.55960369941519   -0.40427483343917
H           0.61022704926541    0.52865632656801   -1.93598997124314
O           1.74011026343695    1.28099389494328    1.24480402194130
H           0.95102882560010    0.88509231027356    1.66171723521722
H           1.98108013665106    2.03906797787369    1.77995565063513
O          -0.10418036852102   -1.88952710901615    0.61864022430618
H          -0.18668726524402   -1.22833096170751    1.32971824899925
H           0.81139001135790   -1.76212834838507    0.23770065281314
O          -2.71745052826740    0.45941061050330    1.08070121578015
H          -2.35638497745783    0.84395423230546    0.25262460909544
H          -3.07325838642776   -0.39505955778730    0.82189673384542
O           1.03220104642500    1.88391741376841   -1.31376072485330
H           0.08959067287311    2.08616670080453   -1.19615807590127
H           1.37517650132992    1.69661209782313   -0.41593842116105
O          -0.47926286373906    0.16781291052261    2.39649298346603
H          -0.67400850930415    0.03544607061681    3.32528641257811
H          -1.35038842565176    0.35911968587422    1.95014612114803
N           2.30442825740008   -1.30500386484806   -0.33880024852076
H           3.10933093264265   -1.91217993877639   -0.26132232459710
H           2.52908282077140   -0.41577313772234    0.09305318076962
H           2.11517700041217   -1.14242825220215   -1.32034575137009
