    26
        -50.45192242  Gyration_radius:  2.49108979981 Dipole_moment: 5.220
 S           1.06743511239426    1.43308648260423   -1.55600542903731
O           1.06017439207494    2.13659311518565   -0.28629262607693
O           2.03974355847805    1.84771455472492   -2.49690441440734
O           1.21913840851674   -0.08214928199133   -1.22375157210959
O          -0.32605346237764    1.48709311882594   -2.19072571715344
H          -1.03806959588047    1.18374924850123   -1.52469725075472
H           1.69404535533549   -0.12714649400835   -0.30906731799836
O          -0.82645903444378    2.18671111118193    1.50890638211891
H          -0.95714549552780    3.07880241117886    1.83270991363005
H          -0.08433547729647    2.23167743494467    0.85657234949966
O          -2.03049775623268    0.75073338833202   -0.45319610480256
H          -1.81647317126351    1.31398994133768    0.31285046186031
H          -1.87810764001172   -0.16902990446932   -0.15516430499225
O          -1.50917730315652   -1.71814422139447    0.54764713130156
H          -2.21832003146130   -2.33566841764723    0.73079169287358
H          -0.89809901564229   -2.15873643632656   -0.11179347452709
O           2.25689581502542    0.03507996583655    1.05661940881374
H           2.32090704097503    0.99698995995986    1.05220314743217
H           1.48796250317369   -0.18145279579521    1.65447237422127
O           0.01732636048230   -0.31333105323307    2.38240341175821
H          -0.35981605793652    0.57526863607908    2.28813749509558
H          -0.52825726430238   -0.89289185908480    1.82479640619017
N           0.12802467910150   -2.78103638606378   -1.25016015302684
H           0.82588676778533   -3.42771354970198   -0.90412251837608
H           0.60412183816948   -1.91101632171201   -1.47679124713506
H          -0.25085055598383   -3.15917264728438   -2.10943803441275
