    26
        -50.44507714  Gyration_radius:  2.4721622241 Dipole_moment: 1.868
 S          -0.22683740066511    1.89865684833526   -1.22539811568645
O          -1.14247905612506    1.81039059830368   -0.11148176755763
O           0.19782989139970    3.20180554936679   -1.58578586717239
O           1.01591277198782    1.00218107815083   -0.89380833411098
O          -0.81192863449746    1.15587345434825   -2.42555561822359
H          -1.18224196687713    0.29371852173410   -2.03458782460889
H           1.24757919854084    1.00649444930620    0.07182964974613
O          -1.28169627958755   -1.33025149138626    1.13851310409525
H          -1.29825940887757   -0.53684440946198    1.68837019101105
H          -0.35462048484445   -1.66804451208569    1.19066930917752
O          -0.94703752857812    1.20653862963830    2.40086611426329
H          -1.11493651387432    1.48527052143255    1.46887462234254
H          -1.47693663040658    1.77742529995994    2.95903823238877
O          -1.75039590835815   -0.96112721204018   -1.38257957838601
H          -2.70691432993201   -0.92444242833541   -1.44379253073860
H          -1.54870979077178   -1.08045565593798   -0.40134013875951
O           1.60861405930405    1.00055157411145    1.65247541408094
H           2.07414928310868    1.79522693233356    1.91999744407842
H           0.73008704166504    1.01648437942451    2.09142509712065
O           1.31547067242968   -1.89032973010987    1.08559901215507
H           1.37979371597107   -1.99246441386832    0.10767710812689
H           1.71869114373655   -1.04272983338939    1.29641318388878
N           1.20528728758296   -1.88256837897257   -1.63761320426964
H           1.72309431067424   -2.42850090214527   -2.31399594538419
H           1.40980509894193   -0.90202005398887   -1.79484830094563
H           0.21667946805340   -2.01083881472426   -1.82096128663365
