    26
        -50.45590429  Gyration_radius:  2.52468985906 Dipole_moment: 7.127
 S           0.12904585487849   -0.05233896521070   -1.52164042613497
O          -0.89400664200269   -0.73083113051195   -0.73415080979731
O          -0.39016395897812    0.95960874881248   -2.38780257380292
O           1.17017904222721    0.50162860999605   -0.56378368627186
O           0.90498641912584   -1.08839291485065   -2.33090562241046
H           1.43368738442299   -1.65102049613534   -1.62878059377892
H           0.70638341867756    1.20920079951873    0.18583595233670
O           0.65601771150509    0.10540234406274    2.97716455756241
H           1.59685732549602    0.03241552772824    3.14290452450723
H           0.39916999418621   -0.67895363707202    2.44905266719656
O           0.09460680944842    1.92195152244540    1.11692375701103
H           0.26363965083929    1.39059623017885    1.93228458804985
H          -0.88583837031809    1.79373938922374    0.91434627001936
O          -0.04533912622854   -1.97625056030039    1.37730713150061
H          -0.79324384691665   -2.46231386590255    1.73077030309844
H          -0.39283697300353   -1.49822544488841    0.58022649040907
O          -2.30167312532755    1.29697433936225    0.39322301401690
H          -2.02124768695062    0.45935405279360   -0.01203483096410
H          -2.55609093382615    1.86786569539816   -0.36011969530490
O          -2.43298125597225    2.65685019883036   -1.93176854744146
H          -1.75471187878063    2.03266667387172   -2.25161543355293
H          -2.03533437387406    3.52779688206338   -1.98555276880341
N           2.16821058941946   -2.31986858475139   -0.48355840921544
H           2.58898866604107   -3.21738918114074   -0.68253390440152
H           1.50460539890742   -2.41585243574812    0.28146688343893
H           2.88708991696366   -1.66461380780335   -0.20725882726977
