    26
        -50.44880348  Gyration_radius:  2.5408222491 Dipole_moment: 7.595
 S          -0.17465888100982    2.19482816220263    0.74320389131768
O          -0.72152150218902    1.49281192941192   -0.40823638642629
O          -0.58252201388925    3.54117899316210    0.89034804870508
O          -0.56782251596154    1.33889239934556    1.99880518678812
O           1.34195963024442    2.09038673112191    0.73690478432159
H           1.66560850494508    1.09287147624523    0.68972815031468
H          -1.47671855656377    0.96243816636459    1.78266630083398
O           1.99816600828858   -0.32358001103035    0.61161867860814
H           1.62287334606784   -0.72465148430352    1.43164932744630
H           1.42900629159020   -0.65441662779828   -0.11935666739106
O           0.11834221573607   -0.86213449279291   -1.20641209154237
H           0.52270587267826   -0.74757972356499   -2.09635266365175
H          -0.24213680382531    0.02630326373862   -0.98619581339053
O          -1.36970092791658   -2.10289055613519    0.64313421664011
H          -1.62729226062819   -3.00229363265000    0.43685229807023
H          -0.82668123663864   -1.78130371275026   -0.10677245088262
O          -2.67302370240369    0.28974083846436    1.01310653696722
H          -2.39824558847573   -0.64285320518477    0.93640161669056
H          -2.40021016496744    0.71871235295453    0.18853817711277
O           0.46283147706330   -1.22380588142526    2.58792048753106
H           0.12816032384933   -0.34980817387984    2.82228490382874
H          -0.23683227798293   -1.64946824987807    2.06736550452715
N           1.36714025094619   -0.06351956868650   -3.47680426355154
H           1.04323745974354    0.89601851692668   -3.50773570619313
H           1.23741239672168   -0.46889803831038   -4.39519317436965
H           2.35992265457676   -0.04697948154048   -3.27746890232031
