    26
        -50.45592085  Gyration_radius:  2.41396192507 Dipole_moment: 3.043
 S           0.43684032301752    0.84558015205985   -1.54998622754187
O           0.14325618065947    1.39997107935405   -0.25101798041124
O           1.53540177531071    1.43499479742768   -2.23657880288646
O           0.62222266433279   -0.67626428700199   -1.40069870340163
O          -0.83455529484463    0.92491439040875   -2.42645503530029
H          -1.58981224924639    0.56940178793823   -1.87947640355530
H           1.23436818091910   -0.87287520581384   -0.52324741181016
O          -0.41613728411708   -1.21189325285491    2.10199728547462
H          -0.95093370734339   -0.38467149060977    1.94262596527376
H          -0.54163278347244   -1.44707740638943    3.02192698712812
O          -1.80423994888332    0.91419367230186    1.46819054717246
H          -1.08207770262501    1.27810854929052    0.91821814653285
H          -2.47894771218479    0.65752586596195    0.82796748283620
O          -2.73118863920713   -0.16209622018741   -0.99452576397930
H          -2.28139907439003   -1.01000742583110   -0.70398569489604
H          -3.45005551633764   -0.42107022972012   -1.57428142854379
O           1.90648106768559   -1.00581020795648    0.67076643551328
H           2.35394029512173   -0.10616957336015    0.70143639459805
H           1.17673972686044   -1.01418952991958    1.32153050601276
O          -1.35459633730373   -2.25107544479737   -0.27300471083707
H          -1.04524636201317   -2.07683325346486    0.63448931108767
H          -0.59622441963707   -2.05106263084995   -0.83981403402702
N           2.90633252268606    1.40853600346852    0.35402118112265
H           2.29606155300144    2.05788539385617    0.83559886334077
H           2.68132079905772    1.49098965290649   -0.63508327525086
H           3.86408193296207    1.70899482378577    0.48938636631281
