    26
        -50.45514633  Gyration_radius:  2.45803555197 Dipole_moment: 5.605
 S          -0.35550330277223    0.69167929208334   -1.80813079760182
O          -0.96474618356668   -0.14936357263687   -0.81317296513409
O          -1.18532187440016    1.71786991749621   -2.35695739418903
O           0.89714274247762    1.35880300174425   -1.17623522143149
O           0.21532264743470   -0.17936401557504   -2.92966016569514
H           0.71990280914062   -0.97030564071766   -2.45365732320979
H           1.13321594769058    0.94399046194722   -0.26736541888595
O           0.64058482887441   -2.22835731264121    1.16234251142660
H          -0.30290556954989   -1.93019303467089    1.29738511657902
H           0.85159403135809   -2.79447560765300    1.90620130161180
O          -1.21228469497805    2.94581475711400    0.02722996243706
H          -1.42413843528084    2.54526356471036   -0.83549004447062
H          -0.36720818371476    3.38299044962208   -0.10655095220442
O          -0.90867023338628    1.40659727310797    2.18963916873177
H          -1.04798112129669    2.00978597757074    2.92153669991876
H          -1.12973363132239    1.91202237314746    1.37210527900022
O           1.38266441868065    0.38322857873864    1.11413284202398
H           1.21110158250765   -0.58032052234372    1.09138971902662
H           0.62999301775372    0.76196006525502    1.60856268272863
O          -1.73856025091410   -1.18379553272193    1.51022184389897
H          -1.57879801697825   -0.35303159861682    1.98330239546833
H          -1.75530958095110   -0.90943314122159    0.57849908330737
N           1.44708829851880   -2.01507003738177   -1.65102770418838
H           2.41144792046689   -1.74234820946478   -1.51100395014678
H           1.42658508355170   -2.91369596624953   -2.11499064174983
H           1.00451776063294   -2.11025152066410   -0.73830602726888
