    26
        -50.44262139  Gyration_radius:  2.55186592447 Dipole_moment: 5.509
 S           0.03552662884413   -0.46402135668006   -2.37675039478068
O           0.87070765694272    0.04625254479140   -1.31728550524672
O           0.68080264396347   -0.85559932498852   -3.57372005120061
O          -0.81844487703768   -1.62559141668018   -1.79326405652516
O          -1.05148536584988    0.59350589087716   -2.70132986796260
H          -1.45766231899192    0.84865863767114   -1.83682375000837
H          -0.43145018204958   -1.96636671852572   -0.93067829546479
O           1.08119245854490    1.08660920815963    1.11566056745319
H           1.82383298412157    0.52730445406111    1.41189671953064
H           1.00553355345749    0.83493123610460    0.17285033655716
O          -2.17635390307501    1.28795858739804   -0.42670892115178
H          -1.64120276084370    2.00793026901082    0.00264495181643
H          -3.01562511744393    1.68174846611339   -0.67293800636476
O          -1.11224812015171   -0.37003877999014    1.60925137537189
H          -1.68065987153921    0.00493237899039    0.92316329098877
H          -0.30029480127743    0.18649650961282    1.59439017183432
O          -0.73847338500105    3.05920148938490    0.90718454930816
H          -1.04346178274960    3.22579943141868    1.80146110359699
H           0.07989369351680    2.53503610693318    0.99498766544568
O          -0.07390212215672   -2.49630951839201    0.51134726303471
H          -0.46260807570669   -1.72882358057936    1.02195831242343
H          -0.63429823035328   -3.25369633891198    0.69169656595505
N           2.72386115593730   -1.07067659828857    0.89039348457496
H           2.64619142120013   -0.81736719336130   -0.09040117031526
H           2.04565381668845   -1.81097826343646    1.03725990335579
H           3.64497490092134   -1.46689613068625    1.03375375761735
