    26
        -50.47273098  Gyration_radius:  2.44012465718 Dipole_moment: 2.890
 S          -0.71930883779218    0.51066665243822    0.37316360466959
O          -1.68627226661130    0.05084860949181   -0.62072999161825
O          -0.97544129701348   -0.07903186483786    1.68065057919808
O           0.65318531830679    0.24669106098323   -0.04958511488729
O          -0.89718099103857    2.04911273711102    0.46187460459354
O           0.21146631957358   -2.38241048865945    1.09979239525663
H           1.12862052422358   -2.10173689289894    1.15611996394652
H          -0.30585185146329   -1.61470459435040    1.42688403727728
O          -0.74048036056974    1.20091978548942   -2.84537189474346
H          -0.63121656320421    2.13913771676043   -2.68346609348240
H          -1.20298199472480    0.84597328546102   -2.06188319698527
O           0.66324050667407    0.91195922880910    3.50901579917480
H           0.14328248986655    1.23429195938667    4.24697327425352
H           0.02973461794983    0.47373819417385    2.90028680865480
O           1.17451251632522   -0.69152385711131   -2.48820937631209
H           1.25596545588351   -0.30585141437957   -1.59275557425618
H           0.62150272997307   -0.03773077856191   -2.95555563311986
O           1.45623724777909    2.38208046060733    1.41071815000374
H           1.67040484066055    1.63299556915645    0.83508916548785
H          -0.03351146141107    2.37914120749224    0.85582784874072
H           1.34775920846775    1.99181199604277    2.30353118367717
N          -0.64463588624028   -2.20969280961192   -1.41355299973279
H          -0.26095175800556   -2.50276969691770   -0.47715899371068
H          -1.13349287417443   -2.95865946719517   -1.89102928829778
H          -1.27182532767507   -1.39326539907799   -1.18602171571819
H           0.14723970423126   -1.77199119974944   -1.99460754207661
