    26
        -50.44623318  Gyration_radius:  2.48552680456 Dipole_moment: 6.364
 S          -1.70433017100159   -1.19083651260596   -1.40088361300553
O          -2.17698762041961   -1.04918972695342   -0.04585604671343
O          -2.66887701940936   -1.10334780307298   -2.43331938489344
O          -0.58289857218121   -0.10492414799202   -1.61333290756807
O          -0.88308617320609   -2.47479339104088   -1.53645588022671
H          -0.22135649792665   -2.46734048968209   -0.75952928861636
H          -0.75826752005105    0.75374851903684   -1.07621237169821
O           0.86420035261640   -2.24080143782903    0.28353434062267
H           0.60713035831124   -1.64564353388995    1.02256763038125
H           1.54599634824936   -1.75356330904263   -0.20811061885682
O          -2.14940266883663    0.74221209895321    1.82873794451513
H          -3.00599740564429    0.85333911264764    2.24317955655788
H          -2.25381912357949    0.01806296484410    1.16594553708328
O           0.43080187523109   -0.25416738043440    2.03778572007894
H           0.85974130466185    0.48836849883348    1.59697586385775
H          -0.48887822772278    0.00938335283309    2.18586448494769
O           2.10623595061547   -0.47877981703004   -1.46481556131710
H           2.48404488690560   -0.84850398501073   -2.26453793754772
H           1.16291337581044   -0.31390777496985   -1.65415587001717
O          -0.79127835756885    1.95864889658717   -0.17021704578920
H           0.13569597396073    2.01553178775684    0.13978409563354
H          -1.33323032129593    1.69931755843710    0.60006484162951
N           1.92926651404608    1.82891075822941    0.45363403715254
H           2.14559387136253    2.69339040468993   -0.03089573067533
H           2.21034561209570    1.07051824196761   -0.16534368691331
H           2.53644325497477    1.79436713473474    1.26559190137408
