    26
        -50.44913293  Gyration_radius:  2.52674340961 Dipole_moment: 5.026
 S          -1.78096765224254   -0.27123882682802   -0.32066586376726
O          -1.10596774774502   -0.71049131923404    0.87388700892820
O          -2.79037919334022    0.72186222837146   -0.15744198117615
O          -0.73207388348988    0.29947842551383   -1.30912814643097
O          -2.35077686191107   -1.50011714892341   -1.03847225264220
H          -1.62747174828962   -2.25043902999655   -0.89605951319648
H           0.12325694917515   -0.23557055626645   -1.28201492499984
O          -1.35629280615210    3.00664331153004   -0.33796748294289
H          -1.51302371959428    3.24065441503749   -1.25496828927787
H          -1.92365054029499    2.23454388007672   -0.16627154616834
O           1.32232533961726    2.76322273437870    0.03759560634055
H           1.43362432257049    3.29830358818818    0.82577422887789
H           0.35846943572920    2.76221097954162   -0.13726116560390
O           2.41926789546786    0.38416762288205    0.64335543826796
H           1.91724109463874    0.24252506880574    1.46774259045160
H           2.12592689079557    1.27315295567980    0.34548699275794
O           1.46521845619058   -1.02461223620882   -1.24677381784912
H           1.88273504405606   -0.53169542773158   -0.45224211791589
H           1.97590156411122   -0.74555630999143   -2.00970183366298
O           0.63556124654430    0.22149233443584    2.67357844910268
H          -0.06543352632965   -0.04067165336473    2.04607832196531
H           0.50180055920031   -0.30721982495672    3.46102905920936
N          -0.44440406370333   -3.10177712885560   -0.53670701930790
H           0.37964424176282   -2.60806566238839   -0.87059519631778
H          -0.40683520175911   -4.06812384512251   -0.83243314772418
H          -0.44369607502999   -3.05267858455982    0.47417659307077
