    26
        -50.44940820  Gyration_radius:  2.45481522571 Dipole_moment: 5.600
 S           0.48300279281715    1.05781832665133   -2.04761266389799
O           1.61182077093940    1.04169271273083   -1.13326644395235
O           0.78371040724172    1.21687737946548   -3.42083471276315
O          -0.35515102350366   -0.21751116654694   -1.80828242778313
O          -0.50559056138994    2.14005608953336   -1.56054260063798
H          -0.12441803745733    2.52552097192751   -0.69452066159688
H           0.13446715504563   -1.10062108423032   -1.42039485504130
O          -2.08786731610882    0.32282375125120    0.18564324054714
H          -2.53746736486526    1.15933522106123    0.04745515300952
H          -1.56302605376204    0.16556407277611   -0.62282806561945
O           0.58652920946857    2.91604988755470    0.58554064438524
H           1.48119551164695    2.69290555994549    0.30776378666048
H           0.32594385976552    2.21841386901388    1.24482740522138
O          -0.06501431126745    0.77927748922736    1.98843161200713
H           0.65190279961563    0.17193402808600    1.75068369726046
H          -0.84337776042969    0.51792176009582    1.46332186622202
O           2.08569695469101   -0.58290026837343    0.82862526903148
H           3.02139327328352   -0.59513270726457    1.03448510264575
H           1.97092101989877    0.05786563339372    0.08174216828355
O           0.61866798405690   -2.20829299242395   -0.72615493594522
H          -0.16771640752218   -2.44165847802232   -0.14818111960908
H           1.27362670016645   -1.81314880247649   -0.11728643065841
N          -1.47023412814784   -2.52013809456272    0.89202543170872
H          -1.95265238252046   -1.63619075317709    0.75987917411907
H          -1.24220725188777   -2.60482476742533    1.87478741538244
H          -2.11415585977005   -3.26363761821520    0.65469293102373
