    26
        -50.44658518  Gyration_radius:  2.56075203314 Dipole_moment: 6.895
 S           0.18166718864799    2.10688929612065    1.44166358509047
O          -0.61360865212704    1.96326768749406    0.24096839584420
O          -0.12745612778775    3.19284967714430    2.29220039576915
O           0.10306368461927    0.74417776886709    2.20207490964696
O           1.67421778165752    2.16617166572835    1.05996653544281
H           1.90423513399575    1.43212328967936    0.41374120993357
H          -0.81659396094718    0.37379698099791    1.97918294115751
O          -1.45931986219048   -2.08335367952938   -0.32338510643604
H          -1.41352794033544   -1.63922297495216   -1.21031671403497
H          -2.06085897453107   -2.82234299473939   -0.42475000889174
O           0.28007007439380    1.14339030208232   -2.16733601196226
H           1.12623883733855    0.79399941775145   -1.85883834358751
H          -0.11319930877552    1.56849262092826   -1.38373383617121
O          -1.41199589680673   -0.82408783003163   -2.63091095581306
H          -0.73043087682565   -0.10927848088744   -2.53648486089480
H          -2.20945155111986   -0.38131903219804   -2.92506457415632
O           2.32650049570799    0.21690851664366   -0.50724116909507
H           1.91671822962666   -0.57889172699990   -0.01763899991018
H           3.27889716859878    0.11363241458112   -0.46837093052354
O          -2.12566018977409    0.00154614189545    1.25897556415886
H          -1.93243999746904   -0.80187958329879    0.72731258263820
H          -2.00995555284204    0.75508895157939    0.65962942103733
N           1.21414021098105   -1.68436955241313    0.87864644167274
H           0.97603443722940   -1.16546024446166    1.71763921464502
H           1.70231354041131   -2.52808609337504    1.14973280182052
H           0.34040209832301   -1.95404254861438    0.43233752262377
