    26
        -50.45016112  Gyration_radius:  2.46498605833 Dipole_moment: 4.570
 S          -1.09823983561533   -0.66114041651790   -1.40379648437616
O          -1.37470736268358    0.70828385588341   -1.04693240045101
O          -1.01430204227796   -0.93246614697359   -2.79843823356225
O           0.27172120765326   -1.04430458287492   -0.73188305143060
O          -2.07517001702460   -1.58678194748766   -0.70223772612609
H          -2.09541279215170   -1.34705683197056    0.32394888938127
H           0.95921129992802   -0.85515619444492   -1.48085389591922
O           2.00578526459783    2.06267992153555   -1.53970046221203
H           1.69406266910093    1.83412038501333   -0.63638509430414
H           2.91476488031813    2.35280535775987   -1.44522293842098
O          -1.53425601259329    1.72510856839173    1.33438468490106
H          -1.52045981185695    1.44144698100216    0.38828478444991
H          -2.14771701219597    2.45925141410351    1.38738633856230
O          -1.97617159212734   -0.94786689491051    1.71229968554200
H          -1.92555941471933    0.02655846168710    1.73804455905332
H          -1.07658069220306   -1.26926043899933    1.99489446108002
O           1.67071119739645   -0.31939166756837   -2.66918342006513
H           1.81079205361090    0.62472555422553   -2.40700316738724
H           0.90279684866856   -0.35232188566066   -3.25533930150488
O           1.14824321245244    1.10260697312457    0.84460460373705
H           0.35052521832552    1.53516400008889    1.18237733856943
H           0.83193054722034    0.30318392782377    0.39750245348675
N           0.55650955612232   -1.65999664814312    2.22033614622233
H           0.80708438980900   -2.37113514932614    2.89466209164110
H           1.11524396576800   -0.83441033525666    2.40357243838480
H           0.79919428448533   -1.99464624049573    1.29467768073496
