    26
        -50.44968563  Gyration_radius:  2.43933640239 Dipole_moment: 3.953
 S          -1.37838364331405    0.34614390404868   -0.99533919188940
O          -1.15840152590793    0.81000123455377    0.35873917856563
O          -2.06785625875325    1.25243919910758   -1.84566395887836
O           0.00151992695551   -0.00688938607978   -1.60555297551020
O          -2.08694148683257   -1.00624176057271   -0.94034700897317
H          -1.63208553931040   -1.59954983376947   -0.24676776589465
H           0.32142725200990    0.87465672750687   -2.02384337996435
O          -1.01427886864659   -2.44607901501128    0.86815455001950
H          -1.68005985797145   -3.05824799249533    1.18949372252065
H          -0.83298859818555   -1.80590875751628    1.62478052998699
O           1.42818277788822    0.36221769120624    1.27412281010715
H           0.59675306047698    0.52105613992375    0.80400117115427
H           1.81011114726287   -0.42660897799953    0.83457019140173
O          -0.62071565987352   -0.65387206796967    2.70723762602395
H           0.29114612247029   -0.35137391393492    2.51119809370010
H          -1.17891071438049    0.03373710319628    2.32440559369169
O           0.51164439715216    2.98295065188564    0.15735038343680
H           1.24604398255271    2.57874641187844    0.63439410263643
H          -0.26293838051528    2.43946221557735    0.37030250970830
O           0.44113347123319    2.32870188043186   -2.41241843985768
H          -0.48454774196298    2.48749830943489   -2.63515810107428
H           0.58849558626698    2.75941592025616   -1.53497051003289
N           1.85993470239759   -1.91334141855448   -0.17231341941975
H           1.52144095441343   -1.50280667655082   -1.03552666328449
H           1.12082475424167   -2.51187516975027    0.17882419998385
H           2.65945015035087   -2.49423239883481   -0.38967323813497
