    26
        -50.44444888  Gyration_radius:  2.52561158081 Dipole_moment: 4.536
 S           0.00435810470072   -1.99207940782807    0.90879418472770
O          -0.65452149296415   -0.81874139303634    1.43352345606318
O          -0.61879631236499   -3.23017403485718    1.20337720472007
O           0.18430661684667   -1.80430133664494   -0.62059684215526
O           1.46950238293652   -2.00209192490027    1.39959225014713
H           1.88618264765943   -1.10304812027357    1.27176687294138
H          -0.79210361122545   -1.78022935625131   -0.93644227193003
O          -0.47564116873969    2.18684146048616   -0.92311244324108
H           0.24842923475985    1.65869258667047   -1.33177496425252
H          -0.26286349006033    2.20395153007539    0.02031513256396
O          -2.28632726770163   -1.69186014121975   -0.98911976960767
H          -2.55898650086048   -2.02965969516173   -0.13237254376236
H          -2.50364671503948   -0.71573324439771   -0.99620122646331
O           0.19111339585944    1.61612565234070    1.74555732107472
H          -0.22802156375804    1.98980243525822    2.52253071597496
H          -0.22299968989856    0.72776874655109    1.61218346931473
O          -2.75920523806115    0.87982009561904   -1.05889553812473
H          -3.15692102711282    1.16047027719396   -1.88458234729982
H          -1.90382652484791    1.38181397061600   -0.98707525140359
O           2.51982652014732    0.38608827284459    1.24810886267699
H           3.09500943454803    0.47732437535965    2.01098342484847
H           1.74147589602357    0.96454109539111    1.40624179570311
N           1.58296848286393    0.58516218246813   -1.71259066669274
H           2.31723359159683    0.69568959350000   -1.02298243456745
H           2.01333736352593    0.58338051012255   -2.62848360491467
H           1.17011694121503   -0.32955413983021   -1.55874480638023
