    26
        -50.44662377  Gyration_radius:  2.55298097771 Dipole_moment: 5.513
 S          -1.21382269186418    2.09863311590894   -0.22742401499737
O          -1.59068977831571    0.75618684511191   -0.62546945428148
O          -2.12460911285058    2.76739729093692    0.62576822909598
O           0.19956110604636    2.01496901263303    0.41254373568658
O          -0.93420176755163    2.93378283850215   -1.48236311752103
H          -0.28312962107016    2.43619257817045   -2.06387141173111
H           0.16704576145365    1.41921656179935    1.22222730369804
O          -1.75761683972853   -1.23225692847554    1.22495090749066
H          -1.92121815105796   -0.56480383742779    0.53707415926420
H          -1.25734230488524   -0.76602609495893    1.90596632195323
O           0.23410116272680    0.39537538647844    2.40510906494151
H           0.93376023227522   -0.22418497298694    1.98706449675440
H           0.63817711730201    0.80956682669763    3.16942164410993
O          -0.12914447628628   -2.93068633848922   -0.03834292929101
H          -0.75711308693719   -2.36372575938135    0.47429760246836
H          -0.64745886496709   -3.66894339735415   -0.36026600838442
O           0.53507457982088   -0.63656157374842   -1.42150502523820
H          -0.26866023535519   -0.17899451914855   -1.10591774985140
H           0.40403221936587   -1.56332410023230   -1.15485851146830
O           0.62614072881082    1.52608895566412   -2.99407444215767
H           0.11210382560540    1.27897152194835   -3.76645289526449
H           0.78531686043390    0.70043251444126   -2.49391415573032
N           1.93521064767711   -1.10393321385486    1.13614561696187
H           1.53047268853459   -2.02979171623568    1.03856451328026
H           2.91252276431840   -1.20451759823917    1.37703073399406
H           1.87148723647653   -0.66906340768332    0.21829535620321
