    26
        -50.44444884  Gyration_radius:  2.52515216386 Dipole_moment: 4.532
 S          -1.33699420130175    1.08281512092888   -1.34979473525991
O          -0.63341802684371    1.64037098452436   -0.21840224596643
O          -1.56496303874561    1.97110523433028   -2.43011049695255
O          -0.57610610292610   -0.18559287362136   -1.81775440211979
O          -2.67454887493266    0.48469441657683   -0.85902601713078
H          -2.52761585615383   -0.07425376981996   -0.04401019280254
H           0.31515817438964    0.21790594109455   -2.12840843574144
O          -0.37869889765234    0.79135470470654    2.22183472332833
H          -0.32777255210602    1.54896471850877    2.80701665574332
H          -0.38388036333207    1.15607522973593    1.30238407552110
O          -2.34162225118412   -0.82646507861924    1.37699402705329
H          -3.12909461601347   -0.66926354593815    1.90265618484727
H          -1.60973491275599   -0.32763359930358    1.80243089663428
O           1.77617766401784   -0.82475148094774    1.42259527485754
H           1.12568285741742   -0.28536654638414    1.89323477979940
H           1.23921988101650   -1.48247096006711    0.92335580367379
O           1.47189843544317    1.13817534550413   -2.37045538119234
H           2.05082201440768    1.07012022667513   -1.55790571272508
H           1.06909190710625    2.00990486433283   -2.35142169453223
O           2.95235644012522    0.85454168833549   -0.23263380310757
H           3.80421391237601    0.45850769954393   -0.42297333226505
H           2.50540341285883    0.23830806697226    0.40708656263115
N           0.00743628161346   -2.40366425147996    0.07868667652526
H           0.18055964023335   -3.34906993554498   -0.23806633969255
H          -0.16503422977445   -1.82622689406921   -0.73841123087776
H          -0.84853672715119   -2.40808529593698    0.62109836974284
