    26
        -50.46836580  Gyration_radius:  2.55068883458 Dipole_moment: 5.027
 S          -0.23142258264627    0.52550495606958    0.09308548517500
O          -0.79067600332917    1.29574264939136    1.17614897517283
O          -0.97982611322892   -0.73001468264972   -0.13010232746269
O          -0.08042766445120    1.25230425109733   -1.15317584406992
O           1.22001000437166    0.09273565003394    0.48133317803107
O           2.14642736406104   -0.17890132752962   -2.03354038904096
H           1.89009430583434    0.69287568774802   -2.35284103614609
H           2.02225984061121   -0.12111377443005   -1.06841120570256
O           0.50731734237299    1.77378415449454    3.44338095719267
H           1.07637720173088    2.53260898472600    3.30891698999052
H          -0.04432373003532    1.69979968651369    2.63576170238449
O          -1.56306241222484   -1.12263239812359    2.43870743248682
H          -1.46765202521562   -1.08723366548740    1.46828680750943
H          -1.85980334815921   -0.24217947161430    2.68714615778970
O          -1.34171489702718    0.72532122268879   -3.39808540245791
H          -2.26214224444270    0.97611093659688   -3.30823929129383
H          -0.88536947470253    1.07893084721730   -2.59818897409730
O           1.04684475228585   -0.78485141313600    2.82306702390952
H           1.01345987859883    0.07069748643847    3.29789838578552
H           0.11433869270044   -1.10713902917851    2.82657781170780
H           1.19871056023385   -0.30807788470117    1.44069392215655
N          -0.14566006789811   -1.44704573078726   -2.43991908596330
H           0.85139074522546   -1.09566198187170   -2.40670016616303
H          -0.53725711993628   -1.27308246316477   -1.44881637830476
H          -0.68523112224094   -0.80052873097204   -3.05890099878081
H          -0.21266184249301   -2.41795397936502   -2.72408375979761
