    26
        -50.45546912  Gyration_radius:  2.49117180314 Dipole_moment: 2.730
 S          -0.27153402634688   -1.15872353201834    0.06893789626928
O          -1.07882579590325   -1.75108877033074   -0.98463366407303
O           1.12246655556167   -1.02544895118651   -0.30155402468141
O          -0.83219858214552    0.16613887496027    0.43910395070829
O          -0.34946517350733   -2.03620590010159    1.33889772407087
H          -1.33667855375435   -2.15197649769405    1.47962088124194
H          -0.79813612285358    1.04506947768022   -0.70535177654837
O           2.83524991489742   -0.22551416602072    1.57392545285419
H           3.67707435038209   -0.13505363270118    1.12395460180119
H           2.22938860181687   -0.64916041171267    0.93142081632288
O           1.38374277984388    2.88922721190752   -0.68275485126463
H           1.34260518075710    2.48239974502221    0.24584876161271
H           1.23283824031643    3.82939594522997   -0.56851218666146
O          -0.58204910119119    1.60156049516460   -1.57462086018805
H           0.24637707059666    2.18550624863155   -1.29536357833451
H          -0.24645089346019    0.86999669759359   -2.22963183982536
O           0.24799605256649   -0.43527614886659   -2.82598132504173
H          -0.37138960371099   -1.05625205531300   -2.37984253705258
H           1.08468896243974   -0.60551764748875   -2.37275056873035
O           1.02885106558782    1.76630630039422    1.59883019041824
H           1.76405935132594    1.14346758912753    1.77488330088375
H           0.27580045061509    1.19495786464898    1.35983406072126
N          -2.93577956365167   -2.04211453669975    1.13608211185528
H          -3.30281524144133   -1.13640693888994    1.39725090646833
H          -3.64385440470307   -2.74341812652486    1.31029616608615
H          -2.72196149402081   -2.02186911478374    0.14211038107543
