    26
        -50.44846759  Gyration_radius:  2.45318538221 Dipole_moment: 8.282
 S          -1.64836570920984   -0.33352755581559    0.49819325755760
O          -2.08219141571423   -1.07003036123081   -0.67268513495567
O          -2.14316964314404   -0.83325756338229    1.75187807660386
O          -0.05798818590482   -0.44892777436557    0.52633243416095
O          -1.83651181408818    1.11663226690024    0.33847723946540
H          -0.67035400766485    1.72244907840572   -0.12482930290401
H           0.18837108213478   -1.39782189363224    0.54387126402980
O          -0.27761867453628   -1.94557989704158   -2.24855496309885
H          -1.00669413427649   -1.58942689909406   -1.65874679370278
H          -0.73202948409865   -2.45534718184389   -2.92151725472258
O           0.28735661718680    2.11949047325533   -0.38395529418181
H           0.81582080352407    2.00199833184102    0.48175066271238
H           0.69628050821948    1.44130352963502   -1.08474194604067
O          -0.91535773959730    1.14344955909455    2.95885672903673
H          -1.32040366880128    0.29693912223603    2.66965279124152
H          -1.48446645067390    1.80538798618306    2.55437925931397
O           1.40701678688093    1.79515318143703    1.89778942705149
H           0.60803440375098    1.40148739256617    2.34070518587408
H           1.62094174806157    2.58525736101224    2.39809884747997
O           0.77069013070222   -2.92395016056748    0.05080920957460
H           1.72812579293660   -2.95307481531349    0.00588615182663
H           0.44256209736533   -2.76935824389902   -0.85768929483280
N           1.29930684817234    0.50253501642630   -2.09647401217046
H           1.38052164925940    0.90378204141765   -3.02207304517898
H           0.71127409076264   -0.32933986833968   -2.15723402644037
H           2.21884835876166    0.21377687411949   -1.78817947764802
