    26
        -50.44694768  Gyration_radius:  2.46755117144 Dipole_moment: 7.378
 S           0.15692533342814    1.49631622224134   -1.80274859605788
O           0.20666050687022    0.11874788421731   -2.23237397575825
O           0.10857216431496    2.50010897222953   -2.79889197841803
O          -1.08906483199314    1.63582471564899   -0.84726356807709
O           1.31078041781654    1.78868889500440   -0.83562207646616
H           1.61805211419594    0.94945906380264   -0.27887193007688
H          -1.65396277966010    0.80297333604456   -0.97583035090778
O          -0.02808073585562    0.09672455098419    2.44070717234156
H           0.13710187658343    0.11463645868767    3.38449151540690
H          -0.14143327412669    1.04252881069264    2.15806618211017
O           1.98663020380613   -0.15617013968910    0.58012051777714
H           1.35021674653370   -0.15326559872051    1.31691875164634
H           1.78815454924230   -0.98778374227519    0.05656226107679
O          -1.33228208569493   -1.85414555422344    1.00379356671113
H          -2.05894596202687   -2.15479121558566    1.55221458679796
H          -0.86367991504628   -1.16811565217588    1.51431786052974
O          -0.13579245902178    2.56216744583208    1.52462638500077
H          -0.64833489892093    2.41802870067765    0.71142694723160
H           0.74184360433543    2.81418827256938    1.22039144067222
O          -2.15054692734230   -0.61993194634408   -1.27152024283106
H          -1.90619795516325   -1.14146096123239   -0.47836176683792
H          -1.41189524744258   -0.71471221607414   -1.89489240365292
N           1.15251240148107   -2.21452020731373   -0.83683214269724
H           0.31999405301319   -2.57986150969438   -0.38962148342317
H           1.67952400231854   -2.98705445296848   -1.22010108542449
H           0.86324908835625   -1.60858015236214   -1.60070558667874
