    26
        -50.44670529  Gyration_radius:  2.45492271439 Dipole_moment: 5.532
 S          -0.89205046787244   -0.72111105357822    1.94011987649849
O           0.55022800051781   -0.68221351916919    1.87731332710437
O          -1.49045940296122   -1.10068631993731    3.16381434881422
O          -1.41744586632347    0.67791437529351    1.48384724716941
O          -1.42474791741293   -1.62981363910048    0.80901923460188
H          -0.78722102272644   -1.63518556211886    0.01385691404946
H          -0.62247829270388    1.33257959482187    1.53808606039441
O           0.11423161383235   -1.54825967540999   -1.21816544426476
H           1.01737835061715   -1.33801493923598   -0.92123482276008
H          -0.20182294296184   -0.78422225911235   -1.73783427108855
O           0.71111512986135    1.99024964355289    1.58208242712752
H           0.99316604965759    2.01330244402020    0.63310029992958
H           1.13945427971853    1.21103176719402    1.96265531579979
O          -2.98339720661174    0.29294411590858   -0.71576956878306
H          -2.61585996092377    0.59052283443076    0.13283322424843
H          -3.11794124519365   -0.65384786801958   -0.61324311740558
O           1.37178379218323    1.57371524839680   -0.95122838111165
H           1.84089057596438    0.72990976367985   -0.88724475525788
H           0.56693099807165    1.40979041098295   -1.46800236533417
O          -0.90464052512082    0.71881636084220   -2.29143741680893
H          -1.72887190085679    0.64881399564922   -1.74569253378799
H          -1.18095582000621    0.97132841107162   -3.17336422086898
N           2.61359110151355   -0.92924747099500   -0.08140832224252
H           2.05795303238453   -0.92336586123612    0.77601583055095
H           3.42369468334684   -0.34177633533785    0.08626200167378
H           2.96747497400827   -1.87317447259110   -0.19438087825024
