    26
        -50.45272356  Gyration_radius:  2.41345922866 Dipole_moment: 7.999
 S           1.71002115852511    1.24269836666327   -0.72977445713680
O           1.62556479009199    0.56268495570878    0.56676105121154
O           2.97406882224346    1.14397473542252   -1.37490732748002
O           0.60212067196514    0.52360825368064   -1.63552477458254
O           1.15026168782521    2.59678412202403   -0.59152922532195
H           0.10435052733631    2.26452942265521    0.26550349840931
H           0.70209654224517   -0.48512028462942   -1.60742163967166
O          -0.63082293559097   -0.74722996289479    2.00701090552690
H           0.19511413304700   -1.19024502575562    1.72958767964285
H          -0.77954254683308   -1.00244645884634    2.91877780541805
O          -1.99809609485153    0.99218763709749   -1.41202043040378
H          -1.04535510240778    0.84119682709168   -1.62005806645547
H          -2.38248515627157    1.39947298747464   -2.18932536466778
O          -1.92558405000319   -1.61847513181472   -0.33737421112493
H          -1.61728252527648   -1.36511098197463    0.54542139679329
H          -2.17467669915211   -0.79457571674475   -0.77770591942306
O           1.71031503821959   -1.90923905457650    1.10554164962079
H           2.56202611884242   -2.19303896402236    1.43913492726600
H           1.81696741129362   -0.94603668435140    0.85617527464331
O           0.54052889306837   -2.01935305226649   -1.37824987501319
H           1.04060270187667   -2.20978327710638   -0.56701934964482
H          -0.40431799083028   -2.06359410703768   -1.11453242057632
N          -0.76156416319409    1.85461707575882    0.86324957154468
H          -1.08274767288329    2.51229875326246    1.56521046412959
H          -0.43091077507569    0.97528214368763    1.29722376711954
H          -1.50065279420899    1.63491342148867    0.17584508017841
