    26
        -50.45971448  Gyration_radius:  2.42853472169 Dipole_moment: 6.565
 S          -0.71908253561904    2.07711252450871   -0.34214968218446
O           0.67875479968269    1.81971801921173   -0.74604270542290
O          -1.21379348883240    3.34684900672232   -0.74083941127788
O          -1.55647710006359    0.94345361134888   -0.82624362912388
O          -0.77491208663747    1.98817571190681    1.21593314296731
H          -0.20288339581753    1.24975685866679    1.56624495999258
H          -0.77413870988286    0.18759428899409   -1.84078942231375
O           0.66817457272680    0.02973893941248    2.15783431645075
H           0.24212716635602   -0.81402527685025    1.92686167885127
H           1.48418214948265    0.06492644837791    1.62946673525503
O          -2.58373790906524   -0.40213112515974    1.15792374910920
H          -2.32825882516414    0.12404916808927    0.36441732793194
H          -2.49606815236870    0.20657129191822    1.89615998673719
O          -0.64298180432263   -2.15497151474837    1.13058842830513
H          -0.93586497156935   -2.97181969416592    1.53598098038585
H          -1.44133570443838   -1.55862002945433    1.09163984261262
O           2.50357831922987    0.24327959054147    0.17278217040589
H           3.33925162339541    0.71022607093419    0.19981511382868
H           1.83186640832414    0.89570730264144   -0.16755157654420
O           1.20786341106028   -1.95324919415622   -0.88445930582725
H           1.85151711107305   -1.35527424085502   -0.46818795396345
H           0.53923260757058   -2.13673153538658   -0.19825362994615
N           0.11638971546761   -0.09736511614893   -2.38765847387423
H          -0.03120935954571   -0.21438113978691   -3.38317761729890
H           0.53947348563791   -0.95495776528084   -1.91536713352680
H           0.69833267332440    0.72636780870758   -2.14492789152816
