    26
        -50.43996894  Gyration_radius:  2.65269743719 Dipole_moment: 7.151
 S          -1.18389612347309   -2.04139080880524    0.43826337651422
O           0.13403941036424   -1.50237923772065    0.70062031008443
O          -1.92305117936771   -2.42126763897021    1.58663458433320
O          -1.95675932194224   -0.98455476977567   -0.41858341570802
O          -1.08535638971759   -3.19880167836533   -0.55413055635038
H          -0.82256933766857   -2.79443078322627   -1.45890631623995
H          -1.90013757395972   -0.08711185759258    0.01976089928120
O           0.99996785931515   -0.02762781676947    2.73013664841492
H           0.60042768486532   -0.55904087935050    2.01107288092705
H           1.50347286100313   -0.64768679231512    3.26001200442922
O           0.42785497908871    2.49214213805454   -0.54152652041020
H           1.07340177934647    2.31820555926784    0.19146487621213
H           0.47597434803153    3.43227709572687   -0.72194344416946
O          -1.78751009565177    1.41015927138803    0.51687727573728
H          -2.52182929091559    1.91822529253416    0.16629009113266
H          -0.96495335168095    1.78437302161947    0.12476548518174
O           2.02340779819883    2.11372295243093    1.53237916232984
H           1.93510712235272    2.78566790545131    2.21070481123014
H           1.69145522673079    1.28230312656154    1.94722602584240
O          -0.55941623002488   -1.97606692667287   -2.71139987117771
H           0.13944668911042   -1.31023059041595   -2.41204070110901
H          -1.37766959135381   -1.47919220122702   -2.78929553507749
N           1.12133233598015   -0.26060507340080   -1.65092189249237
H           0.97328848066149   -0.65002076632050   -0.72003987406035
H           0.87350446385350    0.72169185159586   -1.60156984950877
H           2.11046746683984   -0.31836036369846   -1.85585045533756
