    26
        -50.44617834  Gyration_radius:  2.55395691473 Dipole_moment: 8.235
 S           1.91982519355728   -1.40305585760754   -0.97892127137970
O           1.59331669037667   -1.35144602594092    0.42911997541985
O           2.78634300533602   -2.43370339717142   -1.40958881825644
O           0.56755434773812   -1.43506830228843   -1.75920833543003
O           2.49951449285200   -0.03953208312597   -1.41465597550930
H           2.00938792887701    0.72247597459838   -0.97784160453934
H          -0.09515341104620   -1.87263804702050   -1.12312117814046
O           1.26660109251646    0.78947952281745    2.02613944664432
H           0.35664860422483    0.67911512342799    2.36429956668663
H           1.50615725103207   -0.07492343435786    1.64741192833425
O          -1.36008678979554    0.45588554890456    2.66690579362872
H          -1.86083425581346    1.15325622084462    3.09174206677189
H          -1.81774104192043    0.24419769608011    1.83531764567281
O          -0.90580714877362   -2.31072339717456    0.10160801944068
H          -0.15603709808803   -2.16623229259628    0.69735711191039
H          -1.53720007854288   -1.57750975078390    0.26338700484937
O           1.35004759997287    1.96385324453856   -0.24946504954742
H           2.02912041187867    2.63958169915469   -0.20078253141884
H           1.27609287986254    1.57872024150492    0.68504914306601
O          -2.50168121297306   -0.11786142969404    0.23605520794525
H          -1.99581443823357    0.37119178142918   -0.48764078393731
H          -3.38480186379614   -0.27811500652967   -0.09862431707908
N          -1.08214057766510    1.03267158294580   -1.65814143614726
H          -1.49477560508309    1.57997706951186   -2.40289003076981
H          -0.59417511592659    0.24644431755393   -2.07789899646837
H          -0.37436084056371    1.60395901098000   -1.20561256174638
