    26
        -50.45020608  Gyration_radius:  2.49108652694 Dipole_moment: 5.969
 S           0.10585738123611   -0.81748134567515   -1.84938035353285
O          -0.80479816484341   -0.71441054463311   -0.72101037375377
O          -0.46815726858754   -0.56542551005845   -3.12161526173685
O           1.28482637042514    0.12596428678714   -1.59067767263027
O           0.73419698562382   -2.22697597576391   -1.82948767981944
H           1.22687119491554   -2.29862738662776   -0.96306702229417
H           1.32401938038810    0.46226396431196   -0.59567668923646
O           1.98071492375190   -2.03158869473100    0.43006883570013
H           1.36017618129371   -1.77587195617825    1.14524118857255
H           2.57623599740069   -1.28542981894524    0.31636362114795
O          -1.65940710442180    1.64372264712901   -1.73861718336945
H          -1.54456903709886    0.79976821340920   -1.27746890492233
H          -1.45482286498658    1.43931573931058   -2.65544140724801
O          -2.02458113745757   -1.85144363960576    1.32699316214221
H          -1.66192008708194   -1.56855803543484    0.46413378354724
H          -2.81799634438462   -1.32946208154478    1.46106081084468
O           1.35568095817465    0.94288731353781    0.76895979783825
H           0.85434806466140    0.34696802110241    1.34699871046281
H           0.80441831013619    1.78038385922843    0.66856773894911
O           0.29954721807138   -1.11989628075617    2.36323093937119
H           0.42814521178555   -1.51100454170148    3.22880733687164
H          -0.59201984059902   -1.40865269896661    2.04923628381550
N          -0.15902915643626    3.04904551281613    0.29805392157248
H          -0.72650091238865    2.68010170033724   -0.46731975052519
H           0.36877324727036    3.83283378391520   -0.06464489842118
H          -0.79000954687033    3.40157347872594    1.00669109658087
