    26
        -50.46846772  Gyration_radius:  2.39935986243 Dipole_moment: 5.641
 S           0.32730584876902   -0.62057656253299    1.67939649897927
O          -0.80841905923201    0.06257355040518    1.07062360974977
O          -0.07933824245075   -1.68027421748047    2.56198056120220
O           1.23026717368590   -1.10882609835946    0.60872342239218
O           1.13723359784456    0.43841670548332    2.48672448408996
H           1.26496685472529    1.20464087863868    1.87722436686884
H           0.24287987293285   -1.65186326700107   -0.39976172635783
O           1.59684705769289    2.37902524606513    0.72172738626448
H           2.40816041748515    2.81661558638955    0.98544773712037
H           1.82779447916116    1.80230189216507   -0.05993349333513
O          -0.59686260471093    0.49329413967409   -2.37136649905699
H          -0.78155624234624    1.17752604308113   -1.66008385850447
H          -1.08441222368428    0.78011982505969   -3.14443201622854
O          -2.19146920340705   -2.28212079571034    1.08130602301483
H          -2.67154512034362   -1.45991048793164    1.21925694713262
H          -1.45243957243138   -2.22953070087736    1.73131841051488
O           2.01563217902854    0.65465647843308   -1.19334802450999
H           1.25651732597534    0.62575527225501   -1.79182215492658
H           1.86983980641146   -0.07330660233361   -0.55023402151761
O          -0.99857217831066    2.17847332067849   -0.43389153539901
H          -0.21147833174656    2.66313282945980   -0.15894562392824
H          -1.05879948215101    1.44321245503884    0.21778026673094
N          -0.61498635604607   -1.87084045098111   -1.00954611258214
H          -1.38005651797695   -2.04678734212867   -0.29279732566009
H          -0.45898687017218   -2.68200631088651   -1.59890842288070
H          -0.78852259854022   -1.01370138691565   -1.57643888913847
