    26
        -50.44787020  Gyration_radius:  2.49166483486 Dipole_moment: 5.405
 S          -0.49628652967426    1.74563738522669    1.33381570417723
O          -0.07581189317649    1.59324223777671   -0.04443585640213
O          -1.01516579979181    3.01839825974059    1.67635915081992
O          -1.57988307154045    0.62840517053725    1.58074649875094
O           0.62047707655099    1.33032865422174    2.27366600396844
H           1.03122778822273    0.40484195208779    1.99847888303783
H          -2.21644122785471    0.77655403718591    0.79024367011558
O           0.69038876312952    0.30823505623590   -2.20470015543584
H           0.64635986146303    0.94849486692356   -2.91696580109881
H           0.46663271800133    0.79988735516577   -1.38444942442971
O          -1.61305949934208   -1.09321165790551   -1.64424172626289
H          -1.37679551972838   -1.58850582121512   -0.84597060673152
H          -0.77561510942694   -0.72653933029480   -1.98013317357871
O          -2.79864959977682    1.00687835215486   -0.58327908430414
H          -2.47566748748300    0.20075790155977   -1.07581710193541
H          -2.25243339191394    1.73970512242374   -0.88216961214500
O           1.53209089666981   -0.89377433959478    1.58396713111741
H           0.76564929092413   -1.41891552181953    1.29802091997823
H           2.11617713621213   -0.78831316844074    0.77779137083985
O          -0.94988838949961   -1.92526075126759    0.95886388873587
H          -1.39339193976075   -2.58536176554231    1.49451423555620
H          -1.24768725673101   -1.05135795696338    1.28169735225822
N           2.98369373489597   -0.65026308473254   -0.63224688665956
H           3.63923180533022    0.11854407984745   -0.58091326327468
H           2.28775369144029   -0.42404172278165   -1.33895825305094
H           3.48709396283402   -1.47436532053156   -0.93388386408554
