    26
        -50.44906922  Gyration_radius:  2.51792476246 Dipole_moment: 6.504
 S           1.47967020545964    0.45015575368777   -1.76889880148659
O           2.17757060552609    0.00912716932182   -0.57076664380243
O           2.12789785343487    0.15523408304294   -2.99450213578805
O           0.07279045829363   -0.21528927006622   -1.71544804384132
O           1.15296147257573    1.93697324255020   -1.67527732772437
H           0.78436641692840    2.19490477867828   -0.74345008991870
H           0.25901433304053   -1.20897583804551   -1.37397798680784
O           1.16866219631142    0.18590709340006    1.78063714455366
H           1.57863700556761    0.09109309698549    0.87510660617055
H           1.90171695310779    0.22010981450114    2.39753823413227
O          -2.39587157008558    2.15762025886152    0.57282021311616
H          -2.88936463109647    2.65750609982769   -0.07844142996862
H          -2.45965104350612    1.21042160700995    0.30244311262092
O          -0.77978572333614   -1.68445680249911    1.67216548132895
H          -0.09263739438437   -0.99218581433831    1.76957662727169
H          -1.27632214724168   -1.69394386771752    2.49221553384457
O           0.23874847413625    2.49424657597932    0.60839586478546
H          -0.74876656525575    2.46708283192316    0.60310533207921
H           0.51603813766973    1.76734342010067    1.19178166345458
O          -2.28716371769938   -0.36267814969451   -0.27008015787541
H          -1.85650991792059   -0.91242421945755    0.40658152380974
H          -1.62461711539558   -0.25151393579297   -0.96622375536765
N           0.64945891534562   -2.47609688665215   -0.75593310190088
H           1.62848968455703   -2.31770347301596   -0.55315593379637
H           0.54132288449681   -3.30747796839595   -1.31945157820606
H           0.13334423947288   -2.57497960032383    0.11323962925133
