    26
        -50.44823158  Gyration_radius:  2.53332672524 Dipole_moment: 6.819
 S          -2.18417580746516    1.64543901678062   -0.30031179414794
O          -1.20309881224028    1.80314318746053    0.75543116834004
O          -3.23155632947789    2.59281055894890   -0.33910069039658
O          -1.43588592982711    1.58727864222624   -1.64448812840217
O          -2.76580082293484    0.20709975035469   -0.14401244489478
H          -2.42501638517818   -0.39460378951869   -0.87037123223667
H          -0.44802384682613    1.31881282267641   -1.47814677528274
O           0.46587540626288   -1.66589860887295   -0.30128490042085
H           1.40713047248020   -1.76595077213401   -0.02813933074561
H          -0.00524917055071   -1.39614390137095    0.51669727459064
O          -1.66292656986232   -1.26645929280066   -1.95311199421796
H          -0.88620903946136   -1.62603855616667   -1.48696139666246
H          -1.33924463142395   -0.64106241294901   -2.60816049500394
O          -0.78697796630350   -0.57989547723016    1.81963799124143
H          -0.99987599944903    0.31680671205742    1.47657530081718
H          -1.63354842470444   -0.98213640046644    2.02133091154753
O           0.90107340849281    0.78813300299499   -1.20610226547688
H           1.21621060969842    1.16891347252275   -0.36142526728122
H           0.77681443102021   -0.17117430068452   -1.00143866978433
O           1.41820190779533    1.36479643766976    1.40666912090024
H           0.64563954924782    1.94647249324448    1.37498128522499
H           1.10624887192916    0.58828479467349    1.88511488920500
N           3.02192582058953   -1.30412391162896    0.53664308947542
H           3.70443133375572   -1.38088623438286   -0.20740987145604
H           3.37034938292742   -1.82657742731284    1.33086742085289
H           2.97368854152298   -0.32703981608975    0.80651682420019
