    26
        -50.44671626  Gyration_radius:  2.49247163994 Dipole_moment: 3.572
 S          -0.85887550554194   -1.62815928037529   -0.60320499535967
O           0.13440110778677   -0.87645584459076   -1.33759859537834
O          -1.01705867916700   -2.98296191618311   -0.99268860576212
O          -0.49429419620020   -1.54720138566854    0.91922092653802
O          -2.18659621433928   -0.88055598431528   -0.62644985717582
H          -2.01075435448211    0.04728427944748   -0.20048167626044
H           0.44873454551463   -1.91494019424573    1.03858013962195
O          -1.86627654862756   -0.10902161394181    2.86044690305322
H          -1.29825074048393   -0.73548514133214    2.38635460462408
H          -2.69539396958547   -0.56105473698477    3.02732754325223
O           0.84864072160277    2.13960550213572    0.25505010568632
H           0.73575658061873    2.10473635084957   -0.73779550665281
H           0.95963793695197    3.06147559283608    0.49222573358885
O           2.45445107992524   -0.12515923534384   -0.21850981675539
H           1.71597724540261   -0.36872438056443   -0.80679695868533
H           2.14681567783062    0.68161173389289    0.21818084731554
O          -1.71020599928019    1.28648214797797    0.55739116811097
H          -1.83313434501385    0.98765798421871    1.48182455526596
H          -0.76667078229730    1.54928668930769    0.48620753565366
O           1.90378509954048   -2.34736099664922    1.03572685104770
H           2.30068728004639   -1.51395772773855    0.65956218006005
H           2.02863199144841   -3.03374834247262    0.37633370469359
N           0.34368042357597    1.81521673395265   -2.33521924425525
H           0.20268477801010    0.81403730296662   -2.20414051886551
H           1.04180987689784    1.93446501929872   -3.05831888246528
H          -0.52818299013892    2.20292741351685   -2.67322813089345
