    26
        -50.45277832  Gyration_radius:  2.41731517188 Dipole_moment: 5.637
 S          -0.39124112590322    1.39847867058184   -1.08212190354045
O           0.58699926218844    0.36666519329307   -1.31550057371221
O          -1.23468422622346    1.71244030114753   -2.18591972088523
O          -1.25538844578014    0.95006495091865    0.13810772142699
O           0.28235196028843    2.65793300224172   -0.54244025222534
H           0.95831830667110    2.39477566179034    0.19180221946228
H          -1.49096512716958   -0.09059683862935   -0.00037035084914
O           1.83330589713811    1.87016264543061    1.29857965672359
H           2.29087986084137    1.06780380671087    0.93459334500571
H           1.24524970857313    1.53734565144890    1.99194631256083
O          -0.28448091678182    0.56870755613505    2.59437791285933
H          -0.91968617008293    0.77234420682090    3.28290842227098
H          -0.70875879584851    0.80564951013116    1.74181388454581
O          -1.60411713329175   -1.47077308247878   -0.20117231172146
H          -0.77528091432328   -1.79832257273298    0.19008490857713
H          -1.50678234630038   -1.49045727466977   -1.20486619188819
O           2.58753635586043   -0.43439383109850    0.25156633129042
H           2.08778087667441   -1.10964080094031    0.73092152670871
H           2.02051040410015   -0.21137021262983   -0.50859194728376
O           0.52115291879467   -1.85626829160114    1.56157768702343
H           0.49861293960728   -2.56485130884974    2.20665745342523
H           0.26926724507952   -1.03727778357936    2.02919232728002
N          -1.32199423665038   -1.12691155831211   -2.78630911514262
H          -1.88269192620153   -1.51968846094815   -3.53262727951492
H          -0.34480964288882   -1.27364790710029   -3.00859160321258
H          -1.46108470837987   -0.11817123308353   -2.77561843918563
