    26
        -50.45251204  Gyration_radius:  2.42105552589 Dipole_moment: 4.246
 S          -1.12639603394934   -0.48215769056314   -1.23409527512579
O          -0.85801353025344    0.88485211130038   -0.84613663098112
O          -0.43218742487646   -0.92040840471731   -2.40026028278426
O          -0.78370564154347   -1.41777157673287   -0.04026090564859
O          -2.62875101371993   -0.68343116318465   -1.35370855195945
H          -3.00543308084342   -0.12732183730874   -0.56759065296039
H           0.21480981577116   -1.51192893926663    0.11787036427848
O           0.93062748080724    0.43208262994006    2.08605240230219
H           1.14132632902270    1.12183580275691    1.43456941395486
H           1.35852131483671   -0.36600789974220    1.75700717075430
O          -3.17494677595710    0.82409738114089    0.57933795562126
H          -2.54880487689379    1.48395386791553    0.25879226936492
H          -2.72829282122150    0.41596560480224    1.36994754666438
O          -1.66059475631746   -0.31515821282588    2.40848349703951
H          -0.76060213462558    0.07569654716000    2.40649630505409
H          -1.55718836358648   -1.17294640262403    1.98681792369753
O           1.31320966911308    2.16873099829007   -0.05503369249542
H           0.49996073959514    1.74283398076206   -0.39782034132141
H           1.09926678058831    3.09319055855680    0.08130736226327
O           1.73270915632571   -1.67429418241785    0.32152994742534
H           1.98313854740433   -2.57562034338573    0.11059129219783
H           2.06112711693296   -1.08515938934451   -0.45151436002816
N           2.26145660356558   -0.15316371377381   -1.69356317554789
H           1.39117440143673   -0.31642771909570   -2.19724310040160
H           3.03279278823208   -0.23903242934067   -2.34238108798848
H           2.24479570016724    0.79759041169808   -1.33919540337609
