    26
        -50.45442142  Gyration_radius:  2.4297005312 Dipole_moment: 8.079
 S           0.05070723150543    2.25348842994486    0.52912120061749
O          -1.19062089208917    1.60482825822235    0.97841813069253
O           0.56224225552396    3.22169786624404    1.43736859945201
O           1.08641462229858    1.03931886395398    0.42287473289422
O          -0.05728813297886    2.69488763278134   -0.86900472343569
H          -0.10851609594752    1.49857239661241   -1.59799149935179
H           0.79219574792840    0.46408906703235    1.17473200056854
O           2.61332782684031   -1.19781822158489    1.09114454282596
H           2.82793823654974   -0.26324429091701    1.00398230160889
H           1.97667990133991   -1.25399033276788    1.81484592751117
O          -2.46741233889093    0.06967837294055   -0.59243496764638
H          -3.38399690132108    0.34707644004344   -0.60329828799286
H          -2.00150435811854    0.69657000694442    0.05013071672658
O          -1.05796788112125   -2.05347270703107    0.48817088827614
H          -1.71397369240689   -1.43840246225076    0.12290012337121
H          -0.32651048521732   -2.07293666699420   -0.14718836036534
O           0.05625129762825   -0.44266312886538    2.29157256178676
H          -0.59890555002506    0.26549452189406    2.36602138179979
H          -0.39193812263823   -1.14737732067508    1.76022981664602
O           1.20718374365521   -1.64580767480414   -1.12613783129496
H           1.70336141188876   -2.29940539169049   -1.62104720949574
H           1.74497661244604   -1.45346474328573   -0.31606663031116
N          -0.27690841513200    0.50141707579312   -2.08229381842165
H           0.41471720633351   -0.18404831769565   -1.73061339818025
H          -0.23840078103070    0.57503617322762   -3.09286694235612
H          -1.22205245701137    0.22047616294064   -1.75256925593148
