    26
        -50.47094760  Gyration_radius:  2.44632920031 Dipole_moment: 2.684
 S           0.43558533673002   -0.73280569171893   -0.08623382587503
O          -0.33296410597384    0.42204314912666   -0.60722098265330
O           1.84163873840836   -0.58127324566763   -0.39616048018481
O           0.17791948676305   -0.92356939252292    1.32847166873340
O          -0.12954789083025   -1.99004281151378   -0.80165496261026
O          -2.68607176744677   -0.65221865106271    0.09522917678851
H          -1.89072324097214   -0.23676725494030   -0.28462701695760
H          -2.55942506120090   -1.59529312810797   -0.02929930546498
O           1.89451317910418    0.98205790021436    1.99548308464797
H           1.39395829019302    0.14314234796909    1.98281446162430
H           2.50438327550452    0.89133912343488    1.25686606155129
O          -1.95966069743139    0.16238297645218    2.56269624702787
H          -2.53067698814520   -0.08143579863334    1.80539159576466
H          -1.20144531047142   -0.43992378814966    2.46111946808251
O           1.48244968420118    0.62959934158441   -2.70383198769437
H           0.64283609593500    1.02621669881177   -2.44887834623860
H           1.83247091957532    0.26448108408163   -1.86376031741042
O           0.77665551902276   -1.86013450432325   -3.21958020695998
H           0.17222034382166   -1.99013099046539   -1.75803766454050
H           1.04526378426518   -0.90636522349548   -3.23205024367043
H           1.59049516717207   -2.36691848948101   -3.26550598036637
N          -0.50609451054919    2.01571521936420    1.44985151147228
H           0.46625535069263    1.88706900528087    1.81695382649628
H          -0.49751622703351    1.53207237941542    0.50758213243065
H          -1.17684022510391    1.41208212816292    2.03962923745037
H          -0.78567914624043    2.98867764617441    1.39475284856710
