    26
        -50.45063076  Gyration_radius:  2.54984633277 Dipole_moment: 7.783
 S           0.47991097779515    0.38120449582242   -1.49553274456045
O           0.95390657109749   -0.72898860623725   -0.70921735390454
O           1.42628984959575    1.40550558780342   -1.78377302974882
O          -0.15774326617747   -0.14432047301776   -2.77731807606314
O          -0.69865922120372    1.04982193410921   -0.71932493866527
H          -1.31939840101382    0.34467524046809   -0.36076211254420
H          -0.58605397834251   -1.07757066055162   -2.50424911074304
O           0.57203184726585    2.35908931346318    1.50892316512983
H           1.38820378899477    2.73680825280938    1.12685920901285
H          -0.02472904428019    2.23590842506324    0.76333323555841
O          -1.12489577772754   -1.39317601902491    2.42699776897455
H          -0.24773674976920   -0.91026510375143    2.35068468171935
H          -0.90113127340650   -2.30695066227361    2.60759458301821
O          -2.32154986368321   -0.71437165001102    0.24502590164951
H          -3.08771582318380   -0.21315146916849    0.53302156974027
H          -1.86517140215859   -1.01087380719362    1.09293092039790
O           2.76379208548488    2.94575815312376    0.01543039243407
H           3.54920642093975    2.43181837464957    0.21192684379920
H           2.33844051857071    2.51072077837307   -0.74402685254235
O           1.14096121735666   -0.22560454068749    1.95865277757775
H           0.97866700833410    0.74397216640505    1.96868475617762
H           1.22950170369434   -0.46352536850616    1.02017813160014
N          -1.06866373194960   -2.30142807279592   -1.84223043417399
H          -1.36070990230641   -3.09660942614789   -2.39357648201008
H          -1.80933377161151   -2.02558262766480   -1.20513486968269
H          -0.24741979242468   -2.53286421431124   -1.29509791153271
