    26
        -50.44396293  Gyration_radius:  2.50955926203 Dipole_moment: 4.381
 S          -1.18222278521550   -1.29918499640589   -1.60858663985110
O          -1.47870841671006   -1.25253996368308   -0.19710733711439
O          -2.26286576813116   -1.54706193875335   -2.48861407153199
O          -0.44826313193673    0.02661545539968   -1.98441324261193
O          -0.05694072148490   -2.32646450241069   -1.83904124286599
H           0.59023670462682   -2.23766554027808   -1.08254882380667
H          -1.03409700608516    0.81194615701849   -1.71403559084600
O           1.13720457700470   -0.68078628829908    2.27257637098708
H           0.18472643855825   -0.47643407538995    2.32389508025589
H           1.57653504929599    0.15963834529617    2.11874619393781
O          -1.73856878140216    2.05832456180651   -1.18041144781409
H          -1.18023386013166    2.25244075418013   -0.37028559603630
H          -1.64084961170054    2.80900837118620   -1.76930546557576
O          -1.42553125181104    0.13931989141253    2.00543493928229
H          -1.50074802626654   -0.36067275824537    1.15936970006270
H          -2.26808641409240    0.03719877148774    2.44978570934964
O          -0.13583772833967    2.28072308628595    0.86137598134716
H           0.65158662990825    1.82351320189697    0.49286381636110
H          -0.59158982406414    1.62961023770794    1.42057750054836
O           1.60724618034517   -2.19268446590319    0.14411703290663
H           1.68085756712911   -3.09613794169174    0.45754431875438
H           1.35999613610709   -1.64921801044260    0.93609791440240
N           1.90439573275509    0.89761940355639   -0.38377055609218
H           2.54632093412433    1.53885357926376   -0.83484038277306
H           1.26154744351072    0.56331279036182   -1.09807172448466
H           2.44388990409950    0.09072587453180   -0.09135244677590
