    26
        -50.45028481  Gyration_radius:  2.45838319126 Dipole_moment: 4.438
 S           0.24793462989965    0.65322961682163   -1.83499336851621
O          -1.14163839111097    0.76169392259618   -1.43573462241408
O           0.62771321301962    1.35086225336239   -3.00758058400445
O           1.12521988405735    1.09782854424942   -0.64766589730041
O           0.56807355524382   -0.85333346643990   -1.99256509257993
H           1.07466704643665   -1.25097430953170   -1.19452248198936
H           0.58506187079975    1.13390036440152    0.28923716878452
O          -0.07609930494967    1.11448863246437    1.50898640282955
H          -0.18478124081693    0.16623456601139    1.71716732808779
H          -0.99573669825339    1.47072659165740    1.32727072149830
O           1.77134298922233   -1.82814827942957    0.00724183288565
H           2.50573693778393   -1.21157552123017    0.21277604526063
H           1.13784379283907   -1.77580846410336    0.74446611789374
O          -0.41390412175567   -1.56675626573487    1.64186373732396
H          -1.00784118306205   -1.63536171175116    0.84469125663837
H          -0.77750356688519   -2.14835123519821    2.31028318384195
O           3.55994773597602    0.17264808623694    0.22571435010613
H           4.23017887917529    0.23042300324263   -0.45763509910651
H           2.83753150937482    0.76389238273401   -0.03934740377319
O          -1.80805826773198   -1.62410862282971   -0.57217654539740
H          -1.38341316954851   -2.19365397209095   -1.21883355186294
H          -1.67459993020352   -0.71035515585633   -0.91371418874204
N          -2.49361841700141    1.91967485920549    0.78769624698902
H          -2.71892570897122    2.90581815532200    0.79119844992566
H          -3.31751613565662    1.40791856638179    1.07631884882802
H          -2.27761589788008    1.64908744951530   -0.17014285520066
