    26
        -50.44437478  Gyration_radius:  2.55694590495 Dipole_moment: 6.202
 S          -1.37443332393001   -2.08171825151227   -0.60526039093214
O          -1.41439966217565   -1.16226637688552    0.51974764643281
O          -2.62604589181944   -2.41988968708008   -1.17352140950829
O          -0.40593570528780   -1.49371829532912   -1.65910351366073
O          -0.60161450188717   -3.34550041635221   -0.17794071633060
H           0.20019889162867   -2.99062050502618    0.29669969285478
H          -0.79750682919107   -0.67940257700382   -2.12843491658966
O          -1.21568957097255    0.63613442258630   -2.77171734371964
H          -0.65826297829781    1.25753921722170   -2.21679579855079
H          -0.87245935351134    0.68365470588870   -3.66617843656471
O           1.09497900332324   -1.86951843866902    1.08614091452239
H           1.61049553024864   -1.26580311065201    0.52229339683108
H           0.24906193837607   -1.41321708222311    1.22375233459186
O           0.27647032361175    2.00495827717172   -1.14633370441506
H          -0.32502849481807    1.97750402961801   -0.37868905075414
H           1.00957692181232    1.40929135985814   -0.91080661648976
O          -1.48203367135790    1.46458154334388    0.88300810874608
H          -1.49425574197639    0.49147212762917    0.75894900838816
H          -2.38016976793206    1.75782184917675    0.72011168869212
O           2.21825398374925    0.40259654829614   -0.00236827533745
H           1.89154965814695    0.75895426402026    0.87309826667904
H           3.15314572544379    0.60374984414078   -0.05668519741861
N           1.14616365374554    1.25732024336153    2.28900248626423
H           1.10778085743693    0.48768240058612    2.94617276077323
H           0.19348085710842    1.45754633676464    1.99618661406810
H           1.49667814852187    2.07084756106111    2.77867244142018
