    26
        -50.45645582  Gyration_radius:  2.46917985853 Dipole_moment: 1.956
 S           0.31480734911617    1.25256525782511   -0.38939310795108
O          -0.70439245671275    0.23788394490871   -0.16097104135033
O           0.06885501462504    2.47343253112272    0.31613973772382
O           1.68091852781916    0.66708228750174    0.02907382477175
O           0.47654089200119    1.50975700967936   -1.85878089539732
H           0.62287785055956    0.54959467632437   -2.36097696389507
H           1.62867768487563    0.03154048862384    0.81606376315901
O          -0.94328173998718   -0.26131297012264    2.50185620907350
H          -0.69959895333637    0.61136681620143    2.86664148364960
H          -1.14287690919660   -0.10071278897169    1.56504282628324
O           0.66431722219701   -2.06052376191675   -0.57239695334614
H           0.02804021288677   -1.36648557751533   -0.33086830492912
H           1.24724220647594   -2.15802612333828    0.18561178694494
O           1.50731887151961   -0.94206979974134    2.01019451771925
H           2.03380696995658   -0.58701634502556    2.72967340703636
H           0.54841368889122   -0.82282028360442    2.28556169993380
O           0.18157503085064    2.15066889288213    2.95006974843392
H           0.18997752078093    2.35919442289719    1.99292706514257
H          -0.15245649949338    2.93499897798286    3.38856204024760
O           0.66603500523823   -0.71848198619845   -2.89095131072840
H           0.91436714649392   -1.31574148083196   -2.15306755829206
H          -0.31352876162834   -0.87415397127664   -3.00715089949656
N          -1.96646127766146   -0.91151545924857   -2.60522475625378
H          -2.61452671914275   -0.35448526369126   -3.14658714609754
H          -1.86232105706436   -0.47697884018585   -1.69176472989307
H          -2.37432681008459   -1.82776067431613   -2.46928445245942
