    26
        -50.45220201  Gyration_radius:  2.46163676555 Dipole_moment: 4.494
 S           1.01232342954447    1.07632428577969   -1.02206332673250
O           1.73634145319419    0.10651501530813   -0.22415954808110
O           1.36095529269193    1.06831168672456   -2.40623796064276
O          -0.50645885365717    0.79398367663391   -0.84232097384711
O           1.14021253209949    2.46230756603422   -0.42997232955264
H           0.64796226905872    2.45942644205700    0.50599232955810
H          -0.73036177715558   -0.16630571734149   -0.99780551057977
O          -1.61409155283493   -1.16474282331541    1.43513685444541
H          -0.73907634588410   -0.96950455530173    1.80572269794548
H          -1.45801426053133   -1.52374634133390    0.55330576035738
O          -2.51297696957935    1.37411753272594    1.43634223516499
H          -2.27600419438803    0.42248654607397    1.35913433096329
H          -3.08189117766725    1.44804366772382    2.20436649382599
O          -0.97053821830225   -1.71569589991411   -1.31127300782797
H          -0.07104945962653   -1.87717082784265   -1.74657784469336
H          -1.63233981440914   -1.78890408260442   -2.00201283863485
O          -0.03448046078400    2.27496542911267    1.76211844710327
H           0.31320820510033    1.43346520162157    2.11398921380975
H          -0.98443036372130    2.08685092473184    1.55385143513636
O           0.90655250983008   -0.25184058171252    2.19911552331383
H           1.26516336144340   -0.17617365381156    1.27867546879924
H           1.63368293338689   -0.54085644056130    2.75227580910282
N           1.39011530437040   -1.78534692689796   -2.42492237737697
H           2.04627035079378   -1.90919294459399   -1.66284336330086
H           1.44816973532077   -0.79925366177238   -2.67892543807302
H           1.71075609169996   -2.33806353752059   -3.21091205018237
