    26
        -50.45063915  Gyration_radius:  2.42481888403 Dipole_moment: 4.340
 S          -1.37849458115067    0.60781503317463   -1.28684520279742
O          -2.05554076295201   -0.27540096360223   -0.36176884290660
O          -1.76086853628278    1.97782616513686   -1.17703990840356
O           0.16242171663999    0.49062774584081   -1.01761756649519
O          -1.48816164421543    0.09039339989904   -2.70047259323548
H          -0.84879591326663   -0.75226306192389   -2.78256115418474
H           0.36354796840577    1.13477663092238   -0.28310954296757
O           0.88485249125884   -1.27961011678068    1.52977642818243
H           0.18308051564608   -0.75506530503521    1.93572213630917
H           1.57846043782341   -0.63839569375198    1.27345183653271
O          -1.36784952763016    0.40420255209414    2.09664501198620
H          -1.71827435508650    0.10550748470677    1.22888038701035
H          -2.08445969700065    0.31333671177496    2.72707054567534
O          -0.57160689159372   -2.54988290873834   -0.33466390095746
H          -1.30954784601564   -1.92373241388786   -0.27327385644212
H           0.07177533818763   -2.23852054227931    0.34134435390192
O           0.07190682124643    2.31093678541764    0.81456179833358
H          -0.62599663874125    2.68492467015931    0.25632546230719
H          -0.38531603827050    1.78803934786677    1.49939564269207
O           0.12383188562726   -1.80580843710419   -2.69053823805691
H          -0.11544257776920   -2.24206372690505   -1.80799045327555
H           0.96157760219048   -1.35992572466173   -2.53871037635550
N           2.67888898359170    0.75532259121928    0.93464708064358
H           3.48686917258940    0.78249588776916    1.54376917617217
H           2.13558657396150    1.59599339737890    1.09506739021605
H           3.00755548283337    0.77847050143605   -0.02206561363900
