    26
        -50.45577735  Gyration_radius:  2.44048592148 Dipole_moment: 4.627
 S          -1.43921412911351   -0.74807568610525    1.23899573606064
O          -2.57912602265277    0.10169672935974    1.03739697359141
O          -1.56294953623632   -1.87849639131933    2.09423495647093
O          -0.97754304319373   -1.20953906122578   -0.17036181663414
O          -0.25328471335137    0.09154987420729    1.75997858272268
H          -0.11534797842217    0.97065225593340    1.23495125176759
H          -0.28713905079051   -1.96119018556363    0.05015997070078
O           1.71971632377682    0.92708500970372   -1.45235391319321
H           0.90891398860627    0.60497328050169   -1.92495830282849
H           2.24964793668396    1.38065156057770   -2.10944037542145
O          -2.23845849919342    1.82977928430874   -0.89438133664715
H          -2.99098626757672    2.42337525545662   -0.91384038711453
H          -2.44504614423163    1.15076374686805   -0.20579722492903
O          -0.61127253232411    0.23759444295642   -2.49203386718565
H          -0.79956643422813   -0.52323983193712   -1.92533436634297
H          -1.23640699221959    0.91673850279929   -2.19457008145755
O           0.65735894719366   -2.84643362141841    0.71732043483841
H           1.42353548076653   -2.20767551188371    0.84318931181341
H           0.16545641644859   -2.88809247901063    1.54835283703910
O           0.14402254570321    2.14998795454609    0.35926291203849
H          -0.68834117096122    2.23036852135674   -0.14579375535468
H           0.81451158312089    1.80395780977278   -0.26862409734093
N           2.42067995935445   -0.88503717792747    0.93524909695829
H           1.98661711947154   -0.33276199987841    1.66610244974776
H           2.32754735002931   -0.36179226892754    0.06925542938299
H           3.40667485334045   -0.97683999315001    1.14303958130869
