    26
        -50.46378402  Gyration_radius:  2.40578056238 Dipole_moment: 6.537
 S           1.01867102152395    0.90681428810194    0.20006193083741
O          -0.41952938587507    1.43243744006402    0.48981820802515
O           1.78179622407853    1.35384213921546    1.36700412851289
O           0.91051824750115   -0.56698622823033    0.19177706419381
O           1.49462531339691    1.40665056650124   -1.05633594339951
O          -1.29789738119868   -1.88090616274731   -0.63631368131506
H          -1.04805535822959   -2.41557087218578   -1.39373408281340
H          -0.46606558672971   -1.46359700835219   -0.33963545969589
O           1.31652960605594   -1.57174557118801   -2.28387298145387
H           1.29602472156035   -1.19757305873150   -1.38220654256940
H           2.21728055847960   -1.46105786514910   -2.59179777656520
O          -0.42519596705961   -1.31557726081173    2.32333684703522
H          -1.22368218488259   -1.64282212627509    1.89839976658063
H           0.20352100888558   -1.14748591172746    1.58265894923522
O          -0.01991324484493    0.68051696424440   -3.14716503164570
H           0.31958368396267   -0.23067048401763   -3.13179695567927
H           0.58488421420160    1.16036801800829   -2.55143315129193
O          -1.93335309833278    0.65161909559093   -1.35119127494386
H          -1.35426383122038    0.73119747110123   -2.15492180173958
H          -1.96687397685097   -0.30445242434895   -1.14829071961067
H          -1.06250265222534    1.17138623494261   -0.28345825764172
N          -0.00321799322824    1.15385042700658    3.12428908559784
H          -0.73912423612837    1.78088525172230    2.80861119126978
H           0.85493875167691    1.28998590193037    2.41260991872687
H           0.26048953420434    1.33051275710632    4.08816865803727
H          -0.29918799872550    0.14837842823081    2.96541791230181
