    26
        -50.44591931  Gyration_radius:  2.61260774504 Dipole_moment: 5.496
 S           0.55402400483763   -1.97582934308530   -1.74822737255794
O          -0.73674816704754   -1.31065435191520   -1.84019446932190
O           0.62940660636383   -3.26914715956641   -2.31937497566031
O           1.61222126029072   -1.02783371040444   -2.32393309101360
O           0.91233430956261   -2.07660503992681   -0.23933631330905
H           1.23959642761204   -1.17897727442083    0.09746192490623
H           1.18600396207763   -0.06161412946925   -2.38495675720588
O          -0.38995418960763    1.88256727898311    2.96805321103781
H          -0.46216298141980    0.92008260723959    3.03872841674910
H           0.33841517894701    2.14821632738280    3.53131297986309
O          -1.88306090246339   -0.51551124097181    0.31930238172662
H          -1.44403536479158   -0.86463922428946   -0.50320691566718
H          -2.80715577218580   -0.75900689151457    0.24960050837563
O          -0.30028916560891   -0.90640617118973    2.49905324694796
H          -0.02910409270881   -1.82640419827301    2.50618461462663
H          -0.92708964806114   -0.82150135854361    1.75083507708812
O          -0.46832512654741    1.85022867647541    0.22433702514757
H          -0.49462020745611    2.16108323960678    1.14623785222674
H          -1.12374720067597    1.13159161041767    0.19237564522190
O           1.55532651556682    0.16931778927856    0.79875999010460
H           0.95003139624790    0.86259595513153    0.45479397487026
H           1.15650560438268   -0.09986914272733    1.64467662962127
N           0.40536440933384    1.20007046074693   -2.49225367981743
H           0.26783872776249    1.67293145234256   -1.60348227818231
H          -0.48901653874543    0.83179642387051   -2.79312805656946
H           0.74824097432906    1.86351743486269   -3.17361956921432
