    26
        -50.44591923  Gyration_radius:  2.61297242247 Dipole_moment: 5.497
 S          -0.84459152703611   -1.74320894197076   -1.87532646694345
O          -1.31374280359679   -0.36760552724997   -1.94375932199619
O          -1.64272805729419   -2.70623418569986   -2.53873298447058
O           0.61008956221384   -1.76708208628719   -2.35829153472243
O          -0.75364727205819   -2.12331654173531   -0.37118210602258
H           0.07781866148391   -1.71331886504501    0.03723353030917
H           0.97037166705263   -0.77240227793319   -2.35857396091175
O           0.82239365156895    1.51761762363345    3.08664547090755
H           0.10332804538190    0.86987065949429    3.08716629969341
H           1.49655668404127    1.18401805913545    3.68043310984623
O           0.91872588410526    1.65037145810992    0.34676241155283
H           1.05438361001882    1.85833056550882    1.28783579089953
H          -0.04739587671494    1.58548505749453    0.24987834801172
O          -1.00230979082253   -0.54025287113432    2.42272554251023
H          -1.44203647826877   -1.39119087638252    2.37263939691370
H          -1.34893629616280   -0.01865814708278    1.66924423789706
O           1.18697802741799   -0.98320350361865    0.84110473439933
H           1.24893319467027   -0.05168059806095    0.53504650720201
H           0.65818238292248   -0.93368654741727    1.65662066849934
O          -1.73775856491208    0.91488920067022    0.24353163373997
H          -2.56913600484453    1.37914232791679    0.13694500851642
H          -1.60628834886573    0.39109413377021   -0.59289810554379
N           1.28102149610030    0.68173220280011   -2.39082593677426
H           2.03071637428776    0.94980052189042   -3.01380611669737
H           1.44765198095335    1.08429361760347   -1.47287403228069
H           0.40141979833878    1.04519555158117   -2.73754212454459
