    26
        -50.45123046  Gyration_radius:  2.47041738657 Dipole_moment: 4.657
 S          -0.32367495342671    1.05663338191102   -2.12702068216279
O          -0.25314516328972   -0.30756621986406   -1.65250543595281
O          -0.93435690256819    1.25056237852119   -3.38920385851715
O          -1.02277868623556    1.90682526256043   -1.02388876673940
O           1.09119543648703    1.66236147886778   -2.12133964581172
H           1.37550401912282    1.65901884173433   -1.15744351952368
H          -1.63511332443266    1.35564815163302   -0.45638842905870
O          -0.13990200688785    0.73065412048201    1.95641810563076
H          -1.04106714058181    0.83262797437434    1.62690285976061
H           0.01964979249216   -0.23089455134079    2.00330978091321
O          -2.56598413416484    0.50987698768223    0.50966489280446
H          -2.32794689480902   -0.45700368305609    0.33905545131390
H          -3.49192662009287    0.61086148847090    0.28403999461450
O          -1.72818216767923   -1.86634919477620   -0.02425642315102
H          -1.07357587947376   -2.06484682429459    0.66800772393089
H          -1.20766396458551   -1.52592485163994   -0.77267117141003
O           1.70787971265467    1.70727613609825    0.37212189461220
H           1.77524345172960    2.63352252253154    0.61256001535833
H           0.99435768845684    1.32907412413039    0.96049003873390
O           0.38806403604440   -1.94593629927429    1.73942638585019
H           1.06847376711936   -1.76072120146494    1.02246203692721
H           0.79695490954373   -2.53554185698826    2.37324097942130
N           2.03033951775594   -1.26561887389597   -0.21125484249218
H           2.52213222478686   -0.41450828956673    0.03575434845387
H           1.29816457466634   -0.99778605437547   -0.86912897929397
H           2.67735869736874   -1.87224493845936   -0.69835274421448
