    26
        -50.46113936  Gyration_radius:  2.48833214164 Dipole_moment: 5.690
 S          -0.22814917146337    1.06568825324781   -1.88697445674979
O          -0.24404864396053    1.70674590033686   -0.54478768031763
O           0.47824414075386    1.85983947471655   -2.83679832706683
O           0.37740562940508   -0.28116749079307   -1.73525415866925
O          -1.69495576521550    0.87068384573215   -2.32465987608078
H          -2.17280229563614    0.28615541741803   -1.65683217460595
H           1.76953210922382    0.20400707307176   -1.00995480454596
O           2.53703640002135   -0.34688681130928    1.93816513496864
H           1.63612066439472   -0.77538249717375    1.98430023053802
H           2.65951979813186    0.09751579276375    2.77806666856469
O           0.08953240169911   -1.25696763075545    1.99327467308517
H          -0.53154611643681   -0.51063981431474    1.96574238026745
H          -0.12050020372515   -1.78458715436385    1.20431750080629
O          -2.77811287860900   -0.62978587066808   -0.51686570598140
H          -2.19173590590152   -1.40668834830376   -0.49470292721652
H          -2.57641347869651   -0.13789708283561    0.29987003780241
O          -1.61768499899961    0.85235044621213    1.45774233814185
H          -2.01748591475272    1.60853644270420    1.88874397832961
H          -1.08942510290952    1.21388303400105    0.69424894750349
O          -0.61466731991253   -2.29471571773966   -0.46092741403233
H          -0.41365226504277   -3.09293701980416   -0.95054654171712
H          -0.21439492218202   -1.54391466617270   -0.97557808609955
N           2.19528259905019    0.91216497589621   -0.35271713207775
H           2.44915935360391    0.45005446275764    0.56960187925745
H           1.34399193435123    1.52989853559683   -0.24178342651843
H           2.96974994261272    1.40404642983644   -0.78569103750641
