    26
        -50.44301689  Gyration_radius:  2.47932192494 Dipole_moment: 4.158
 S           0.88790934675840    1.46190009022935   -1.54651799144497
O          -0.36763829900172    1.98591348715163   -1.06747185836777
O           1.88006740099475    2.41325668948369   -1.89122895371669
O           1.44464285193389    0.50973286904191   -0.41294261296323
O           0.66355422422246    0.46649466716379   -2.67483039848380
H          -0.03566854676314   -0.20359882041542   -2.32356870643587
H           1.14238084234041    0.80920519024970    0.48191823293802
O          -2.35485197188886   -0.58852837304206    0.42126414056039
H          -1.72727073910656   -1.03763688467625    1.02223901342146
H          -2.35730184049163    0.33949841283024    0.68983304525726
O          -1.76529664061390    2.08654584762436    1.11153792970285
H          -2.29223738961748    2.88506250687591    1.16644472330061
H          -1.32895831684496    2.09854787552231    0.22630904665740
O          -0.90686640543763   -1.21930483367711   -1.67410477890678
H          -0.32880660254251   -1.83406965227274   -1.20469902318306
H          -1.55902007766114   -0.90320169673233   -0.99179240989347
O           0.61688127650418    1.23583927338028    1.96876152997019
H           1.10397953869795    1.98350295828676    2.32027547527621
H          -0.30520453378657    1.54072440295749    1.81397108773767
O          -0.17524530234154   -1.55831730666114    1.70938828572084
H           0.38166996897919   -1.93922171077455    1.01074184439771
H           0.25498234290881   -0.74586802790109    1.99609182556584
N           1.52333916034075   -2.44513898912308   -0.42610040955829
H           2.19354687107925   -2.90674442548539    0.17858024665939
H           1.86191203287564   -1.50041273199286   -0.59013158671985
H           1.54950080846068   -2.93418083804182   -1.31396769749033
