    26
        -50.44658677  Gyration_radius:  2.62231586844 Dipole_moment: 9.279
 S          -2.63506970842324    1.39579271088107   -0.10792140881276
O          -1.25514324970872    1.85354794239991   -0.06792608348543
O          -3.62934409018626    2.40118431956438   -0.11764628385341
O          -2.80789002415378    0.50880304849226   -1.36364169273295
O          -2.84485501769457    0.43387731213434    1.07663225269099
H          -1.94936138607858    0.07905771785854    1.39202513508217
H          -2.02353531127415   -0.10105010366259   -1.52705920624402
O          -0.56198473398119   -0.45011037867097    1.78134810145996
H          -0.34663485684964   -1.24504425776852    1.26158859943765
H           0.11854061743740    0.21076916435530    1.54729589383676
O          -0.71761888250050   -0.92263988296085   -1.82831856659977
H          -0.38196502739844   -1.51684404457917   -1.13444811361552
H          -0.05321080675169   -0.21883254706713   -1.93000595474248
O           1.37053418124884    1.35709006981417    0.97991324409406
H           0.79767283311632    2.09439197090339    1.20999392141798
H           1.34559394707942    1.32240224629672    0.00936121748575
O           0.68429898996758    1.41612222961209   -1.72257744224656
H           0.72323129337554    2.05953215224433   -2.43135380061947
H          -0.10611899062234    1.65373352291644   -1.17319138194040
O           0.43887246551985   -2.40143545388219    0.16939092140120
H           1.35855516546772   -2.05015416993621    0.34587970270406
H           0.46491298780559   -3.35220776342468    0.27895770224187
N           2.78855876362602   -1.28909560969131    0.76463828208276
H           2.49193119478077   -0.36068278680344    1.05210982693932
H           3.43715752118459   -1.17658971493567   -0.00464783921445
H           3.29287215486890   -1.70161770399552    1.53960297325608
