    26
        -50.44764638  Gyration_radius:  2.48019002746 Dipole_moment: 3.589
 S           1.61311856972757   -0.73634766638427    0.12674985285696
O           0.84885121749921   -0.67204118851630   -1.09392897941877
O           2.82706604398744    0.01672925854706    0.10651815602861
O           0.70661656808250   -0.25512437345925    1.30175938806909
O           1.88349701428758   -2.17680227228314    0.52575248844451
H           0.99118861124127   -2.58621097999931    0.84694282157424
H           0.49723067169903    0.71531360872082    1.17991776431355
O          -2.29271282907828   -1.58124878477207    0.59957199150794
H          -2.22892004570051   -1.43422296580741   -0.35667245925169
H          -2.33568344699115   -0.67750881755472    0.95977541464225
O           0.31543847579444    2.26680949835466    0.86087742281042
H           0.78879293049621    2.33080075023124   -0.03215552978891
H           0.83104986345559    2.78171756474325    1.48454358958958
O          -1.67403793215596   -0.36230161111968   -1.81899220718834
H          -0.73318209960894   -0.46312435101536   -1.56275338409851
H          -1.74469145164975   -0.69574022490511   -2.71432480771361
O          -2.27894203244771    1.15312574033970    0.56667522764336
H          -2.23965999236644    0.93237334143858   -0.37210147281464
H          -1.49048358827697    1.67615453294102    0.75127593122863
O          -0.29835710445125   -3.03952241825633    1.42445548661624
H          -0.25708458538470   -2.85499575084026    2.36555373488623
H          -1.07177006825309   -2.50448530154709    1.07977238178241
N           1.67650814324230    2.15056337382846   -1.36157023759695
H           1.13484933399029    1.64612159400000   -2.05252348060966
H           2.34596711948532    1.48182945376958   -0.98203396541370
H           2.18535064334780    2.88813798946966   -1.83308513796951
