    26
        -50.45497442  Gyration_radius:  2.46837152245 Dipole_moment: 1.087
 S           0.46827924935012    1.41467933196627   -0.53628751296825
O           0.65011186554133    1.22357259184744    0.89019362714596
O           1.67218713369383    1.37604233515147   -1.29789726896886
O          -0.52116969674841    0.33967864318444   -1.02711903986680
O          -0.28581905485390    2.71145444790953   -0.79544053966658
H          -1.20845478668864    2.63103592226809   -0.35977395208158
H          -0.11502251243167   -0.60489471169216   -0.84586018425684
O          -2.51362311610175    2.46232121309045    0.38864514885889
H          -2.34304482874420    1.70414345204580    1.02392540134536
H          -2.68361923433115    3.23615491629516    0.93020491332564
O          -1.72394410781575    0.52968213213893    1.92626806980503
H          -0.80366013207730    0.73904530852476    1.68185846622590
H          -1.94706789344519   -0.31335313936955    1.48348422630971
O          -2.19258246548836   -1.64336049294355    0.33301419145245
H          -2.48544178991807   -1.15038332234507   -0.43761983506918
H          -1.37167618920881   -2.07999264506058    0.07219987196100
O           0.50307521733403   -1.89260597396633   -0.51860430309521
H           0.86609438166714   -1.77694571336678    0.39138388712732
H           1.30394739217371   -1.83704633270750   -1.11926369391882
O           1.37980864501321   -1.14882293139331    1.87624136554403
H           1.30018829914591   -0.21118703626712    1.61506862778714
H           0.81089961865745   -1.26403984227494    2.64091157946501
N           2.61252088231493   -1.26455161518116   -1.96375387350172
H           2.43874287387059   -0.26675256104097   -1.83691231691975
H           2.67298915487117   -1.44306491688624   -2.95816170986687
H           3.51628110429276   -1.47080906987296   -1.55670513621786
