    26
        -50.44214789  Gyration_radius:  2.63777470106 Dipole_moment: 7.881
 S          -0.24599279286351   -1.57964642024765   -2.27354328302105
O          -1.21199744108804   -0.51509244871831   -2.09363122857861
O           0.02030212690934   -1.95007844071052   -3.61602874611367
O           1.04939772933240   -1.14519942865772   -1.52842527882953
O          -0.66969087998388   -2.81767694726938   -1.45435708707704
H          -0.59984410671758   -2.54956953317065   -0.48972222194066
H           1.17470008629621   -0.12594578378095   -1.74234889136629
O          -0.33864900603584   -1.81571048433332    0.90038432059772
H           0.59961910160785   -1.59856702964088    0.88405897879856
H          -0.80569922631333   -0.96185864946282    0.73193445211607
O          -1.51807278333510    0.51192953978724    0.30780982163230
H          -1.58093533432780    0.19917347813865   -0.62092545724440
H          -0.84121827414810    1.21170444885210    0.29870306063602
O           1.27367109210463    0.29169977886441    2.30813063233883
H           0.36287780412944    0.15236028904756    2.66023409298245
H           1.85841370604885    0.32978213920066    3.06530502539344
O           0.60614159101167    2.27764257221466    0.62624307904937
H           0.99654889594725    1.56966227570291    1.18391674989126
H           0.41934724561691    3.01360701371252    1.21161589786291
O          -1.29524572741306   -0.04340956175544    3.03773913079588
H          -1.69189174587725    0.29556923278995    2.22045548208059
H          -1.43770758720699   -0.99413312247297    3.01733472651218
N           1.03894090724435    1.32578724647420   -2.10175013588795
H           1.00724204046650    1.88851795531687   -1.25680226192250
H           0.12009287143178    1.31248365690308   -2.52854059238533
H           1.70964968716725    1.71696824322098   -2.74779025632244
