    26
        -50.45564904  Gyration_radius:  2.4178696024 Dipole_moment: 3.087
 S           0.52238546505873    1.13730887105406   -1.28637648666589
O           1.32112085939620    0.35925014838024   -0.37003608850059
O           1.01112169325642    1.20596584358571   -2.62119871182346
O          -0.92282088101236    0.60938085341626   -1.24411478861367
O           0.35895166253864    2.56555245625127   -0.71621910889575
H           0.08510354282240    2.48424962956578    0.24073722725977
H          -0.89430613388922   -0.47772323694381   -1.24676082991835
O          -0.29702364592081    2.27087862082799    1.79593341657208
H           0.23606817196398    1.45597632935334    2.06619508461423
H           0.04287898480522    3.00262309195014    2.31403911006391
O          -2.37688927431002    0.55022314275768    1.11617174962639
H          -1.89071298187782    1.27211930621170    1.53890483332608
H          -2.18729278997900    0.64142307358290    0.17097164171031
O          -0.98390158350907   -1.65574300002586    1.59136738831566
H          -1.52675810398968   -2.32400695895042    2.01200894272910
H          -1.57172880581935   -0.86778856163039    1.45311906620725
O           1.04645551691917    0.11349600775409    2.24448540059998
H           1.37694446386721    0.13633909412465    1.32471279052630
H           0.41934321446938   -0.62759919670297    2.24773916065358
O          -0.71495373695831   -1.83922514800739   -1.12807419346920
H          -0.61758688886855   -1.94164794645509   -0.16014793667696
H           0.19074350313749   -1.92249685052223   -1.55599493993649
N           1.61099065127960   -1.64576251792729   -2.34611450478182
H           2.33361257503897   -1.58124410203219   -1.63949103687141
H           1.47184653442394   -0.70066481369013   -2.69695558292228
H           1.95640798701773   -2.22088412588165   -3.10490161310512
