    26
        -50.44582745  Gyration_radius:  2.57602832364 Dipole_moment: 6.120
 S          -0.80159771927420    2.02835223396813    1.38886825586099
O          -1.32220797482138    1.42167051643609    0.18037689131738
O          -1.75642839353174    2.51937572758911    2.30805954372015
O           0.13228994477694    0.95947858404807    2.04916286591532
O           0.19086097452237    3.14151731584348    1.02589863515474
H           0.87887257820329    2.86145435552221    0.34398120591382
H          -0.48850473739054    0.16126267685510    2.10852043688274
O          -0.03712453605986   -2.72307150046010    0.57749035194337
H           0.71791128679950   -2.07555936291153    0.53493363960235
H           0.24058112298697   -3.42079725859244    1.17267033309617
O           1.87224457753593    2.49292671123584   -0.82032333954860
H           1.85858122925695    3.19095009947372   -1.47845918252416
H           1.47950867955978    1.69998787096722   -1.23947250709884
O          -1.59438912440240   -0.86544405398648    1.72621077773244
H          -1.98088988392678   -0.32471098814214    1.02632359604908
H          -1.13717157224632   -1.62060937346824    1.28657543103110
O           0.41848320573399    0.39591309652549   -1.54088892369632
H           0.04854688625790   -0.43001475067918   -1.94327156405575
H          -0.30885560706927    0.76398284460605   -0.99834793773051
O           1.75484331634883   -0.80075898876244    0.48164062382993
H           1.42876466287595   -0.36816992179195   -0.33643181395991
H           1.56532120482388   -0.17804092267071    1.19337551578615
N          -0.68177197817163   -1.95831825284007   -2.25277127985834
H          -0.23106028130856   -2.52078784605337   -2.96294337724430
H          -1.66946526223111   -1.91341579488552   -2.46876129260897
H          -0.57734258925145   -2.43717303781719   -1.36241691550902
