    26
        -50.44856933  Gyration_radius:  2.5122698094 Dipole_moment: 4.939
 S           0.73698779481805    2.26038564853694   -0.64425048617792
O           0.31764207559658    1.16822036263008   -1.49172675958791
O           0.86014569369100    3.53542067384904   -1.24175515118231
O          -0.24392660968845    2.29171308257516    0.57510301017424
O           2.07214442741385    1.88671842340405    0.03672345821724
H           1.99945176448636    0.97050153456707    0.42608184378148
H          -1.11306241522121    1.88182031180974    0.22887068618523
O           1.84988416089341   -0.40452112508742    1.24415835620874
H           1.09593448510859   -0.15252001626009    1.85981804945807
H           2.62383041228831   -0.52728705214942    1.79731457104749
O          -2.14313856517439    0.99988984542818   -0.46740923218417
H          -2.17288140185125    0.18527120137544    0.07876983729528
H          -1.50884771189600    0.82694843136947   -1.18057921674415
O          -1.85393336573389   -1.16140130591088    1.11379485152323
H          -2.50507201484002   -1.81403396432069    1.37248798128100
H          -1.09559429137705   -1.66864594348638    0.68635628590558
O          -0.19500520957927    0.38027823797677    2.63085554342516
H          -0.29403945471927    1.25889064172984    2.24040294355988
H          -0.90651836237877   -0.16635273386093    2.24417296113758
O           0.17956652808603   -2.34038555035740    0.03833175843645
H           0.17553530333415   -2.14889733040659   -0.93300874804957
H           0.91064751537519   -1.81535598935950    0.39366796082699
N           0.27032798734286   -1.51744911562334   -2.52492948735635
H           1.09618785102056   -1.78891343823601   -3.04366641460749
H           0.36718822544134   -0.53038434664355   -2.29314135544253
H          -0.52345482234032   -1.60991047372091   -3.14644327699092
