    26
        -50.44948082  Gyration_radius:  2.46770607626 Dipole_moment: 6.205
 S          -1.01616260789418   -1.21676543712419   -1.75366450730942
O           0.00203524082134   -0.20533009259216   -1.50767392782597
O          -0.73945872944290   -2.07965049736157   -2.84392921287420
O          -1.22000007439508   -2.01542148319470   -0.44059377658556
O          -2.36753567749433   -0.52928043912998   -1.92359086705423
H          -2.50583199454547   -0.00016086669809   -1.05422864642513
H          -0.38777508454968   -2.11493309216381    0.10963181506844
O          -0.66707794864039   -0.03521930154670    1.98515265662772
H          -0.28713390463356   -0.91539486627251    1.90172510487248
H           0.06259009932147    0.59185793669264    1.83755381559377
O           1.14590163383682    1.99742167919522    1.38682571759509
H           0.65096486355612    2.20475319154761    0.56998899879682
H           0.95910234931570    2.70413294835684    2.00703955143351
O          -2.46575230867087    0.82773078716593    0.20302800648681
H          -1.94972824960587    1.60423719676102   -0.06179231447550
H          -1.93200273009154    0.39668610240848    0.91218173842922
O          -0.36247701125657    2.29444925613405   -0.86535404365598
H          -0.24399354981737    2.82970820768994   -1.65118142533364
H          -0.21068869994565    1.35676553160162   -1.14381114813059
O           0.87800032373851   -2.27496437219130    1.03859200532323
H           1.26967663834263   -3.13874965047465    0.90128169809504
H           1.54459518350264   -1.58333847659514    0.70533752132281
N           2.39419601755531   -0.39863210148164    0.05975914598503
H           2.35759814503845    0.42513050401737    0.65057923970298
H           1.75774508995943   -0.23599180804685   -0.71833257747986
H           3.33321298599551   -0.48904087669607   -0.30452455818629
