    26
        -50.44391929  Gyration_radius:  2.54817452442 Dipole_moment: 7.547
 S           0.83520168910166    1.40322378222167   -1.88164711515735
O           0.09848400289997    2.33103252684988   -1.05043871238797
O           1.89758084574075    1.93784757540808   -2.64929899908275
O           1.37772563184679    0.28257469871692   -0.91023847342463
O          -0.11765999305474    0.59535686943948   -2.74703235840831
H          -0.94347162639487    0.28472587247822   -2.18339017397170
H           1.90073882160480    0.71421991211357   -0.17621179926655
O           0.33503165326171    0.34283141360037    2.55479960576413
H          -0.33426031681817    0.74006644092558    1.95116379261215
H           0.06866199841128    0.56156754660226    3.44893253112488
O           0.85013009631316   -1.87107778156958    0.83116229121292
H           0.63951746176449   -1.26965418829515    1.55723016749420
H           1.10870789772325   -1.30360890409575    0.09296519231904
O          -2.02617748578925   -0.16540890500987   -1.31738720873778
H          -1.85512213452077   -1.13327036892436   -1.11124059084146
H          -1.93136820073201    0.31283563487329   -0.47706786369729
O          -1.38171041678426    1.46084003136442    0.84088161524462
H          -1.97894651524062    2.17605558402609    1.06746525563334
H          -0.77753424289339    1.83366876059421    0.13583049381621
O           2.57339465274983    1.09967593816332    1.23013195095318
H           3.27211156803935    0.46818530967630    1.41612245788925
H           1.82733275416046    0.87999115254185    1.82572001489242
N          -1.46106613401101   -2.67747487849147   -0.68302881501449
H          -1.16160792129867   -3.19727598925390   -1.49788791121428
H          -2.16176973405537   -3.22747284375650   -0.20322662186470
H          -0.65392435201593   -2.57945519019918   -0.06430871588526
