    26
        -50.44441971  Gyration_radius:  2.50192878445 Dipole_moment: 4.947
 S           1.24795167758174    0.63006110815705   -1.80583009373083
O           1.17087962738330   -0.33543034915364   -0.73006345413329
O           1.56960264507440    0.10218803313294   -3.07964163973555
O          -0.09883427721094    1.41388343528946   -1.82573169031639
O           2.23310451837990    1.74179299150232   -1.41001248650791
H           1.80251161671649    2.19914772924488   -0.62971967364965
H          -0.87197523073532    0.75632629570704   -1.81475560302180
O          -0.21324712319760    1.02149487401820    2.18701867253280
H          -0.25082021820742    1.32457908222930    3.09557576533564
H           0.49751416920699    0.32594588245328    2.14545760169254
O          -1.98714282568671   -0.73243660271628    0.90248650645466
H          -1.42011323990123   -1.52314727469614    0.79039931737183
H          -1.44166597935552   -0.06353149082643    1.34594797692631
O          -2.07455979384762   -0.16899767152792   -1.64045469672273
H          -2.90063206194604    0.27780516866097   -1.83588859738156
H          -2.09495545240512   -0.39150814391143   -0.66263063270939
O           0.77375614096829    2.81567195705894    0.42016679738479
H           0.43760159677669    2.17034370207029    1.07972638976592
H           0.04748212431513    2.97269604573840   -0.19040562819402
O           1.54977229871963   -0.88023394527758    1.83887282434907
H           1.11063220376467   -1.73373204215596    1.88422123436424
H           1.60606186712500   -0.67236733737859    0.88463645444192
N          -0.31255583352600   -2.71711044471001   -0.00646978226626
H           0.29177656288065   -3.49781689210639    0.22365472083611
H           0.26803533891506   -1.99482826175746   -0.43279549049386
H          -0.94018036179274   -3.04079583904313   -0.73376481259329
