    26
        -50.45212766  Gyration_radius:  2.45281696369 Dipole_moment: 5.983
 S          -0.59264321173615    1.96573181736054   -1.04297444546204
O          -0.18986288762638    1.85149329858053    0.34405314467840
O          -0.06297021793589    3.07928924595266   -1.74246970942572
O          -0.21865784275802    0.63618845470083   -1.75806341479813
O          -2.12175961170606    1.91604845765206   -1.13232583495254
H          -2.35648907589946    0.99821871333432   -0.78499522374482
H           0.78266184653534    0.49042714814754   -1.71848754336980
O           2.16123555343949    0.72470113173600    1.03780639597381
H           1.38376787119573    1.30233130879883    0.93564842754824
H           1.82458868732967   -0.07351834568362    1.48228231350510
O          -2.58947204413757   -0.40358498311313   -0.14252962556809
H          -2.15282797601284   -0.28131583944192    0.75662535331763
H          -3.52771522891576   -0.50956232810735    0.02820418094685
O          -1.34578618039784    0.13436993053232    2.05803992654149
H          -0.61255957550052   -0.49081732216201    2.19563503268334
H          -0.93635442907881    0.91154576402167    1.63606450108059
O           2.29612798152898    0.28793134346843   -1.50813304184879
H           2.36870210494414    0.40301830262410   -0.51148174654042
H           2.75056316039385    1.03827821252320   -1.89668231620837
O           0.83618855425155   -1.52886211239281    1.91308203084157
H           1.14574391705447   -2.30997382287753    2.37216224879024
H           0.60223174490836   -1.80448980721001    0.97843799362434
N           0.20136572158753   -2.08706666704868   -0.60456720617415
H          -0.58522172584885   -1.47722245544972   -0.80621615737089
H          -0.03972925155808   -3.01703722077102   -0.92427683342472
H           0.97887211594119   -1.75612222517392   -1.16483844062768
