    26
        -50.47220394  Gyration_radius:  2.41987438579 Dipole_moment: 2.791
 S           1.52816118354265   -0.13976472725113    0.78045101951898
O           2.09799921684346   -1.42202590005352    0.44878792972470
O           1.45870264587711    0.74778311744653   -0.37657981371076
O           0.25700023828403   -0.22848701031254    1.47426789707099
O           2.52299117979980    0.54960889380510    1.80794982080195
H           3.35846260057082    0.19310168705303    1.52710432807798
H          -1.05990994125887   -1.02269243031872    0.93476769188435
O          -1.80782193608104   -1.52036375403272    0.53045669164686
H          -2.37678375813322   -1.78354625504826    1.25540402892347
O           0.00763971480303    2.23639909020861    2.48790468946133
H           0.90312765753777    2.49289929424673    2.71421527617192
H           0.05666315334203    1.29383114654762    2.24926115710052
O           0.22325905161633   -2.67616824231471   -0.99277864156407
H           0.97748439693613   -2.39080514001610   -0.43724890620435
H          -0.57000648872956   -2.56735792528650   -0.44418519871387
O          -0.73915052508415    2.33997765480520   -0.17776027987413
H          -0.77399736483878    2.53708862223337    0.77138291833305
H           0.11461561403481    1.88990797264126   -0.29626952151614
O          -2.21276459040240    0.46476238918691   -1.35816057266006
H          -0.94448659810235   -0.03739960228194   -2.06766328075027
H          -2.31007198097257   -0.21397805868475   -0.66865403989236
H          -1.83956066363530    1.25971751530809   -0.90723217885021
N           0.04467945990313   -0.40719541358907   -2.30336422225413
H           0.10283442814888   -1.41679066511312   -1.97733097564942
H           0.70746216227880    0.12167991713693   -1.69001671799273
H           0.27347111372446   -0.30018217632048   -3.28470909907641
