    26
        -50.45526224  Gyration_radius:  2.41586397332 Dipole_moment: 6.811
 S           1.03977296495537   -0.19363857581663    1.59432639088956
O          -0.39133339756315   -0.03442573288636    1.52574893763629
O           1.43971066340774   -1.55757048958660    1.92059712021700
O           1.67473237532371    0.21538967829907    0.31503754833014
O           1.59556755652858    0.75338811826575    2.70055965572617
H           1.26546869773356    1.62937127211749    2.40590819458392
H           1.83325448529405   -1.24397126795308   -0.58364017134084
O          -1.74901144647482    2.17558352467042   -0.31952483955462
H          -2.45331287192916    2.82461387614492   -0.30365942277606
O          -0.86319575919353   -1.75110496077441   -1.72169233066634
H          -0.58259338429841   -0.78494593436280   -1.77324615474132
H          -1.10764519210764   -2.00646945728952   -2.61263726035042
O           0.66431565206635    2.65996111389065    1.11434235264767
H          -0.24418580057176    2.51810531122917    0.79642175186831
H           1.22241569883144    2.14410782303221    0.52001672705223
O           0.04579978214303    0.66937993917734   -1.74106138374669
H           0.67992257156568    0.58222704128371   -0.99893613788687
H          -0.60865676010408    1.31492528438495   -1.42586470856842
O          -2.62791145279071   -0.30575385726246    0.16599522019081
H          -1.92604163443956   -0.30964519801186    0.84437404843592
H          -2.15951510893227    1.30641053649408   -0.08898377282709
H          -2.32089104119093   -0.93638100687912   -0.49550644809571
N           1.48892781929905   -2.23092301451292   -0.51995999544056
H           0.54143713266118   -2.26034438842328   -0.97422269521407
H           1.40839990485257   -2.26396799534418    0.55663457487019
H           2.13456856492113   -2.91432163993429   -0.90102718123873
