    26
        -50.47220510  Gyration_radius:  2.41986848142 Dipole_moment: 2.800
 S           1.35965635569946   -0.82743513770671   -0.65546132133736
O           1.58991585009609   -0.34374237982413   -1.99422153634397
O           1.63041626358929    0.19205637693715    0.35347211294654
O           0.05644374604889   -1.43901987773609   -0.47296519549128
O           2.41228968341863   -1.98957141766195   -0.40573530940514
H           3.12770798448265   -1.71759260023389   -0.96974094634026
H          -1.37243722528150   -0.72574303727045   -0.79347802349359
O          -2.18878880031744   -0.21762055909276   -1.00833421254877
H          -2.86814816748038   -0.86835198638005   -1.19148468498927
O          -0.42075061702611    1.35407027528692   -2.48577765999386
H           0.33132874641748    0.72701935604794   -2.49337432958152
H          -1.19983528991540    0.83530353208383   -2.22883757615137
O           0.40166116691626   -2.77748682227216    1.81945953336899
H           0.21203817185934   -2.41068839180615    0.93791186256200
H           1.31244490662842   -3.07444531358832    1.78535720706391
O          -0.06475078077630   -0.12280623931749    2.45840328907504
H           0.64315276560923    0.01691684431683    1.80650999812914
H          -0.12596252903695   -1.08752897448965    2.53860989985812
O          -1.88015115288614    1.38533431948447    1.22880260160380
H          -2.21543318395511    0.80537417519136    0.52392214282913
H          -1.34765729264851    0.80752830537804    1.82636473632017
H          -0.73732090626820    2.09627054109615    0.48581902133981
N           0.13254169148749    2.33354118485427   -0.11249098116447
H           0.85709606552061    1.61857522495921    0.13027895788155
H           0.46626003086879    3.27684009528626    0.04768195187617
H          -0.11171750304688    2.15320249647235   -1.13069154801253
