    26
        -50.47186318  Gyration_radius:  2.45044560781 Dipole_moment: 2.265
 S           0.43838447750897   -0.36631464574668   -0.62034190710768
O          -0.72711047589021    0.44059012567317   -0.19286223104108
O           0.76618693246825   -1.37294474934358    0.35893315233427
O           0.00971790155222   -1.11315640107036   -1.90920666172312
O           1.56240130520650    0.51178311339361   -0.92297091746775
O          -2.31935308271753   -1.66950300809580    0.27644791896214
H          -2.09599762057144   -2.30168291321302   -0.40933469994407
H          -1.84245372357428   -0.85278356063054    0.04092032599065
O           2.33431653939819    0.60429909105851    1.62354770155714
H           2.66676249365270   -0.28993600368681    1.73948134949234
H           2.16818522899256    0.67765332278120    0.65914025754346
O          -0.75044326422362   -1.99072291231813    2.46460282533039
H          -1.55745439338298   -2.02618624313398    1.91443244899102
H          -0.04108715100271   -2.08004744311001    1.80041582334279
O           0.08262394375522    2.50025022186876   -1.84646606326040
H           0.81847773863739    1.95222042160783   -1.50695016356429
H          -0.66005738074545    2.25618620433957   -1.28251794497072
O          -0.16824394545717    0.69475891085497   -3.75108612642852
H          -0.10417966162712   -0.45544213086213   -2.65776151248362
H          -0.15006807244403    1.50207507869284   -3.17602989632780
H           0.65073204549851    0.70306535419199   -4.25132117108656
N          -0.22672322702271    0.56240985716736    2.36743129160522
H           0.82095367408543    0.64543891678604    2.28018539927141
H          -0.62280551704133    1.24742062690229    3.00157846850754
H          -0.57527510706561    0.67201753869963    1.37668426592846
H          -0.47748966800915   -0.45144877280756    2.62304806654700
