    26
        -50.46979179  Gyration_radius:  2.41652662915 Dipole_moment: 5.548
 S           0.85212425780642    0.29873982439489   -1.42067362838566
O           0.47833531913958    1.39189632367619   -0.54087482595454
O           2.18992683455954   -0.18720111857947   -1.15395290165052
O          -0.13636920868082   -0.78968152460063   -1.34995766753356
O           0.82750222154329    0.82590782135911   -2.89295914053497
H          -0.11561970206690    0.99130264863949   -3.06403478979331
H          -0.16496540861141   -1.63787104342427    0.01673612861678
O          -0.12906654550877   -2.13596598935009    0.87411297786226
H          -0.47531993729925   -3.01016940331358    0.68908663599363
O          -2.14290797562461    1.28938442379215    0.01436969461236
H          -2.57156504487021    1.20738152872119   -0.84112833024556
H          -1.19813545381289    1.42974659157813   -0.18599336526533
O          -1.84842838386197    0.50371960481381   -2.81376098728192
H          -1.38445158305894   -0.11353966830624   -2.20489455495090
H          -2.22604492089176   -0.03053881189687   -3.51528925475584
O           0.89843059120716    1.36277213321829    2.12595715503053
H           1.71234860820046    0.15985828019120    1.82676425676048
H           0.77331860709236    1.66774019884779    1.20795603654485
O          -1.35966875227239   -0.00431702833731    2.29498375860865
H          -1.84414726360818    0.46657609401731    1.59422278659620
H          -1.06788123092049   -0.83576471069203    1.89534751891531
H           0.02228811257736    0.96712339424746    2.37228829491269
N           2.15422630964154   -0.75337427404168    1.39903405621475
H           1.42798555230449   -1.48793050324467    1.42594900587069
H           3.00479668271225   -1.03894387334814    1.87093400354351
H           2.32328832355449   -0.53685089911706    0.37577713605492
