    26
        -50.47076136  Gyration_radius:  2.39817078351 Dipole_moment: 0.848
 S          -0.91856714557599    0.84320059800068    1.29583145974953
O          -1.17398915603725   -0.57470586568088    1.05052253407460
O           0.42742710679996    1.09440320570091    1.75016588234918
O          -1.30513816814636    1.64622232862281    0.14749299453233
O          -1.87286606560245    1.25547641292530    2.48559900011356
H          -2.73264754762973    0.97718758943990    2.18703642681986
H          -0.24239580483528    1.63947289301526   -1.08922345830400
O           0.40790268048413    1.59403580234040   -1.83266708137840
H           0.37920102916502    2.44974731243391   -2.26331345115607
O          -2.45096431754906   -0.46213992340896   -1.28478183522420
H          -2.09142152340652   -0.67295428704951   -0.40241498871490
H          -2.46255573961147    0.50033359760964   -1.30354223469645
O          -0.15460468834818   -1.04511705799799   -2.56042016684438
H          -1.09058006711559   -0.98072806777603   -2.26918752170264
H           0.15287153887873   -0.12540267801698   -2.58562947112053
O           1.45713332694988   -1.31854276516600    2.47166006298814
H           1.06727757378566   -0.44325434081647    2.30639448979384
H           1.83243422740845   -1.27706035985974    3.35196942671541
O           2.33825303578794    0.66281700896410   -0.11767652195188
H           1.88045020148284    1.08644060176705   -0.86362624832264
H           1.86867190778569    0.97650262583796    0.67465790523801
H           1.66574742476609   -0.82221864383416   -0.13976453090307
N           0.94654649560991   -1.59513118901745   -0.23389770733839
H           0.57313697422964   -1.57704050214233   -1.22921055482485
H           0.15672894742949   -1.34690018781985    0.40332979372758
H           1.34194777328148   -2.48464413803969    0.05069579650313
