    26
        -50.44647005  Gyration_radius:  2.48324293934 Dipole_moment: 5.864
 S          -0.26844669484663   -1.63323358442374   -1.70587245523337
O          -1.07915423663958   -1.70204038841240   -0.51501709638751
O          -0.19339408119580   -2.77909636826185   -2.53142798505437
O          -0.70314522017529   -0.40436338695730   -2.53046132317827
O           1.18124804446999   -1.22266831334060   -1.26265151717509
H           1.26172081763297   -1.14885558615650   -0.26834986662743
H          -1.13086590212582    0.22569582458193   -1.85900970172343
O           1.48708380576520   -0.98783220332983    1.30075816003317
H           2.18199047368674   -1.57413134070073    1.60387059179472
O           0.54561571184378    1.58227834830958    0.75856797013939
H           0.97751247967457    1.82828035298114   -0.09635599123919
H           1.00266903410902    0.77516260464721    1.03791829534718
O          -1.69416270855060    1.00329760697221   -0.66419104266458
H          -2.10738882299776    0.29512269542015   -0.15805190575939
H          -0.92829376662857    1.30353200969326   -0.12596667990891
O          -1.59732696323181    0.87242846799734    2.41590158633759
H          -1.79413523682819    1.39630953277818    3.19295904788120
H          -0.86329478945614    1.31051566899057    1.95730618049383
O          -0.81035118056248   -1.74250806935862    2.15668618024453
H          -1.11037477308011   -1.94700481666241    1.25412468248709
H           0.62319281354156   -1.32186272199593    1.71374234650466
H          -1.23000195105684   -0.89186021895779    2.38134807587840
N           1.50585453423122    1.75144499790098   -1.75053948294366
H           2.36049354568304    2.20696707293692   -2.04543176369628
H           0.76337926232791    2.05294156494007   -2.37040741939476
H           1.61957579436162    0.75148026038227   -1.88944887616139
