    26
        -50.47160944  Gyration_radius:  2.4544643058 Dipole_moment: 3.826
 S          -0.81276397267830   -0.15735810321382    0.24663220171995
O          -1.80114186790161    0.44645398917599   -0.80127752798332
O          -1.37563599218561   -1.35907863055903    0.81163947057811
O           0.42897388674317   -0.46102213769049   -0.50290795772624
O          -0.58968708235398    0.91201314945876    1.20073795088668
O          -0.65630267202098   -3.00945107666133   -1.11496465266000
H           0.19022862336267   -2.59443088721700   -1.30516698830346
H          -0.95702028497346   -2.58425716074427   -0.28373326494680
O           1.37643611371507   -1.41839830207818    1.82847273660236
H           0.57705672310243   -1.76291105327552    2.23453658095335
H           1.11772508626704   -1.19895524349564    0.91825858679839
O           1.85103503638624    1.20411071516976    2.34343605154307
H           0.88736614025689    1.32237582702503    2.29583506875803
H           1.95251198419263    0.23248748551391    2.37075056341361
O          -0.38139152794633    2.98308454579707   -0.41760431441449
H          -0.61326745970019    2.34141546960574    0.28826525940467
H          -0.99216384814302    2.78714997954709   -1.13193574272540
O          -2.44577052104598   -1.52405397818729   -2.35037102667954
H          -1.78148644617531   -2.19080743947262   -2.03704400921835
H          -3.30390259018022   -1.85966217072465   -2.08177486865734
H          -2.06710618419363   -0.27303899970985   -1.44478927383175
N           1.91812207668076    1.65160252453209   -0.23590536050467
H           1.41774347328242    0.74524024765721   -0.47988006519002
H           2.07658406115948    1.58382443417707    0.82250666324616
H           2.77589234258477    1.78337021297761   -0.75976141106478
H           1.20796489175925    2.40029661238891   -0.41395470000316
