    26
        -50.45050555  Gyration_radius:  2.59535558368 Dipole_moment: 3.899
 S          -0.97308543165451   -1.55215901465321    1.11411643895090
O           0.10806108231864   -0.87366728674917    1.80957575416866
O          -2.12280841333562   -1.85185435825699    1.88036834049824
O          -1.38189832114913   -0.66241899451339   -0.08041379621076
O          -0.40693502298934   -2.82828396026368    0.47141927956014
H           0.39545438191229   -2.56340667013532   -0.09035553195038
H          -0.55272972034349   -0.18444284017373   -0.51632765128671
O           1.61627831503481   -1.96994270921456   -0.82464876310882
H           1.36309888786341   -1.10892885573620   -1.19505622176271
O           1.52426007037731    1.36056986583971    1.22736306325972
H           2.39556965736807    0.97664721948638    1.36685668813743
H           0.90490710065450    0.74700301241420    1.65923884086910
O           2.70551889732202   -1.36612943962387    1.57186299081639
H           3.01746455520767   -2.07808164285059    2.13192510839292
H           1.76011243257513   -1.22858533038928    1.79523762777873
O          -3.17816311547882    1.44595295713721   -0.49493075309662
H          -2.70232569998526    0.61215850927063   -0.37041695840518
H          -3.79923017328629    1.51069987993703    0.23228022137784
O           0.55553702406343    0.54468312740793   -1.09460676253232
H           0.97723522767621    0.96995374726289   -0.30620022725540
H           0.05577824459041    1.28677151057088   -1.56410926593122
H           2.23052923922915   -1.77699723473874   -0.08738354607478
N          -0.92856483227774    2.46715611537629   -2.09560658653995
H          -0.63748181000352    3.40642221352557   -1.85539139035733
H          -1.79555109762823    2.27241166947703   -1.59801571528760
H          -1.13103148798795    2.44446852957333   -3.08678117406074
