    26
        -50.44505426  Gyration_radius:  2.51026504392 Dipole_moment: 3.004
 S          -0.87649487444337    1.39909287569335   -1.64544819652197
O          -1.70551014315216    0.70698724439787   -2.57527364443379
O          -1.06424373315324    1.16817286694476   -0.24959628761910
O           0.58987990317919    1.25042061077318   -2.04173906384252
O          -1.12826110784508    2.94815359224658   -1.87546893638930
H          -1.36320977833646    3.05292224457096   -2.79486148527952
H           1.24880895517389    1.15777324113739   -1.24347903541992
O           2.25559455116598    0.92264772331440   -0.19785370862343
H           3.11580151232181    0.96999690510662   -0.62013315424595
O          -0.48194347850743   -1.53672007055335   -1.48455194744425
H          -0.92568283072623   -0.91561838175033   -2.06913871230735
H          -1.09636689910783   -1.67769590356609   -0.72502015510541
O           0.50353331461515    1.30274467858669    1.97508184031774
H           1.31746787085323    1.40698039111775    1.46690519516770
H          -0.20018903571759    1.33905747645801    1.30729780962898
O           0.50709435017645   -1.30175100704937    2.54142821752264
H           0.45244996332432   -0.32089160494002    2.42880368646911
H           1.04204386638852   -1.45592378853878    3.32098380914451
O           1.68417165637213   -1.51639784694692    0.08555882299412
H           1.24547807527126   -1.60162574138274    0.95599646102785
H           0.96720864281322   -1.62070576340790   -0.57698544739391
H           2.06722753146563   -0.08794522815913   -0.04975631323576
N          -1.95841532680652   -1.51238224257208    0.78382673329590
H          -1.30662834837619   -1.70402141798590    1.53710153138172
H          -2.86562780789026   -1.86907946244088    1.05351097213681
H          -2.02418684908676   -0.50419139104465    0.69281098873718
