    26
        -50.46152667  Gyration_radius:  2.59987335849 Dipole_moment: 7.387
 S           0.43961043595731   -0.06976480010837   -0.57693963076012
O           1.22451779796060   -1.21757347389247   -0.10759599091930
O           0.78594917848760    1.13349393346826    0.18051093691231
O           0.50188828920546    0.12955906583539   -2.00271806088804
O          -1.01261387773122   -0.46284494223639   -0.16435234360845
O          -1.64382917503519    0.02000965433611   -3.56486507185018
H          -1.77583839938258   -0.89643419417288   -3.81009341896587
H          -0.78632217253410    0.05293706642086   -3.09018661816317
O           0.10618678653400    0.99609725601957    2.66489362709701
H           0.30761251337494    1.15502047968283    1.70290154327082
H           0.81678512694401    1.42015322200229    3.14998682199576
O           2.79198641810750   -2.15951370973233    1.97591922860965
H           2.47256371703937   -1.81079147271199    1.12687240611831
H           3.68597714454972   -2.46659329611815    1.82157833072846
O          -0.36392031431790    2.82468305195247   -1.52554370721324
H          -0.01128350608771    2.50055874609777   -2.35908590872435
H           0.13751147644492    2.34481644543614   -0.83917397000870
O          -2.49547352199415    1.23211616421929   -1.30806028430060
H          -1.88103751563584    2.00074431472275   -1.34344448082022
H          -2.46992070237873    0.85618424611781   -2.21016977018250
H          -1.66596414485670    0.21672226775670   -0.57505768504907
N           0.14457357926951   -1.58393209825959    2.19938257768737
H          -0.74439225586275   -2.06973764662999    2.25341256722573
H           0.47071715448829   -1.49221571705188    1.17414163469020
H           0.06316214759930   -0.57892673041866    2.54468247097498
H           0.90155382983564   -2.07476784272045    2.68300479617680
