    26
        -50.45127726  Gyration_radius:  2.4800367526 Dipole_moment: 5.940
 S           1.75594339605871    0.60377776036227   -0.05075222543094
O           0.62592890876590    0.61278377469445   -0.94753459243378
O           2.13521881279188    1.88161509310207    0.45637571139392
O           1.42611122360190   -0.37713573403003    1.12060724427746
O           2.92945456741458   -0.10891469297819   -0.69949834361697
H           2.58486356537936   -1.10699902967420   -0.91214386724885
H           0.60504985007088   -0.07327063618943    1.61638528619320
O          -0.73945004328666    0.33153405186382    2.30417195930605
H          -0.89100143846168   -0.13948783640388    3.12547296726844
O          -2.40314698272035    1.79724653453006   -0.76395711392507
H          -1.57599050429858    2.13926388800694   -0.35910223096799
H          -3.06450622650376    2.47299250720871   -0.60629465591850
O          -0.71461650524407   -1.53592466912245   -1.46071625767225
H          -1.21582530189051   -1.38715453860107   -2.26528167900375
H          -0.24667244556940   -0.67953747559161   -1.28529728264833
O          -0.44690915745477    2.75076340210288    0.84106601554205
H           0.48846299065269    2.65629503475888    0.60884145397427
H          -0.59422628930114    2.13992655762561    1.57357239255898
O          -2.37532366153407   -0.54030381635030    0.52705070179253
H          -1.42309288207815   -0.02072757359783    1.64070592149882
H          -2.52082944299923    0.29674826996802    0.02868530824527
H          -1.85076343512371   -1.09116330802690   -0.07879917590535
N           1.99643040389978   -2.42898867930843   -1.09012457093518
H           1.00217029513932   -2.29975923596528   -1.28636432424851
H           2.09166441659031   -2.91770713793302   -0.20999143513267
H           2.42105587610445   -2.97587251046313   -1.82707720696664
