    26
        -50.44246721  Gyration_radius:  2.56900786745 Dipole_moment: 3.917
 S          -1.28362772880791   -2.22924095249738    0.48884510041921
O          -1.46100647475924   -2.39235188208766   -0.92349296876463
O           0.05026601527263   -2.07566716806716    0.96227200162666
O          -2.18966215535846   -1.11319675036745    1.01556337301037
O          -1.90867927990847   -3.47979885063224    1.20108522055035
H          -2.69472667385225   -3.68770581571668    0.70234260193838
H          -2.04045301841722   -0.21052802909875    0.50727346960179
O          -1.85322738586606    1.03675358842096   -0.19859479201655
H          -2.65204959940551    1.56126081672591   -0.11745076728537
O           1.23620541235343    0.21965294631372    2.00163514214763
H           1.81983128439058    0.07283925089973    1.23234232632439
H           0.69680107818815   -0.58049909686100    2.02071430893479
O           2.22875910540384   -0.67589923881839   -0.37953682625107
H           2.02569427366556   -1.54210378852815   -0.01505621648445
H           1.48821017622211   -0.49078573128002   -0.99117640176621
O          -0.03409214481957   -0.27999700822780   -1.87122824322079
H          -0.46888710174502   -1.14004832485237   -1.76638928974020
H          -0.65317126308157    0.35533667638153   -1.48848085199807
O          -0.00797775360511    2.29037435334782    0.92034456750733
H          -1.09435789953060    1.58418875812981    0.29844248460012
H           0.42351954328025    1.60782185263516    1.48943046599712
H           0.63983417900963    2.42913288155303    0.18133102766919
N           1.75568641378997    2.26160376271677   -1.11953682999777
H           2.43333508223880    1.58659604014532   -0.78156396179732
H           2.26241033498371    3.06599589980795   -1.46659313468910
H           1.28136558036517    1.82626580995538   -1.90252180631339
