    26
        -50.44403654  Gyration_radius:  2.53947339038 Dipole_moment: 3.663
 S          -1.36909069618440    0.78025530492858    1.66738691006398
O          -1.35573846427029    1.22701136844278    0.29433036012223
O          -2.55288112081940    0.15967170184146    2.13336148012840
O          -0.16513980216063   -0.20851429532776    1.84344942659688
O          -0.92639642593960    1.93490034221233    2.57707134169483
H          -0.25453016975253    2.45330662508621    2.02935192872727
H          -0.38600513034035   -1.07180411835571    1.29668922397265
O          -0.74082512762532   -2.18912821619622    0.43762504491364
H          -1.41627329766743   -2.70041506006843    0.88859345303695
O           0.67732932878700    2.88638027214333    0.82836027153864
H           1.43341330015935    2.27309854701533    0.79999008385286
H           0.02948997053057    2.53778274882043    0.19621962857280
O           1.80524082160147   -1.41187377470388   -0.87803828978435
H           1.10738235293015   -1.88330331984878   -0.41062211535704
H           2.06287729878890   -0.66670903453171   -0.31869944082088
O           2.26348028232467    0.64902272652725    1.06819185726323
H           2.96975432214695    0.52769207916313    1.70548906685083
H           1.44663593599616    0.29562027024128    1.47056801042534
O          -1.87907240207466   -0.84859843734018   -1.37588066098610
H          -1.20165122616954   -0.74743093138654   -2.10209047001691
H          -1.22197720022541   -1.72148582738981   -0.35173355835747
H          -1.88228941030078   -0.00001868114714   -0.90310311156869
N           0.14543437585469   -0.57561851467953   -3.10246278816350
H           0.16327258690592   -1.18937052483501   -3.90653494642289
H           0.88813666161100   -0.87134471896823   -2.46739800382291
H           0.35942322587927    0.36087347834096   -3.42011472244361
