    26
        -50.44451000  Gyration_radius:  2.48722622511 Dipole_moment: 6.925
 S           2.15971650776410    0.53789891326675    0.99611019607575
O           1.44929103433385    1.00972935665788   -0.16536196319146
O           3.27226635612146    1.29445459169882    1.42986402211168
O           1.11233841636493    0.36628828187387    2.14577992773577
O           2.59058711673404   -0.92799480084060    0.75870183590905
H           1.74965112087599   -1.44736142005388    0.63794073334198
H           0.27895786854548    0.86491474659061    1.93299784239111
O          -1.92209595570026   -0.80789649434307    0.44067889387207
H          -2.75856438532046   -1.27254309252675    0.49083968982805
O          -0.75572307478986    2.41838981560959   -0.95465593568048
H           0.13518385265743    2.05420691390616   -0.83079420763850
H          -1.10893016659123    2.49830134971296   -0.06273743131219
O           0.34652768456650   -2.22966224072557    0.64370457104466
H           0.28969843660911   -2.62220273471244    1.51728337102047
H          -0.46538718713679   -1.68238981505115    0.52929683798696
O          -1.23298091950743    1.41465114825778    1.70632091764849
H          -1.57257308892373    0.60917032525262    1.24409959570405
H          -1.67742769922837    1.46474007998546    2.55471701713171
O          -1.72336033464412    0.09290335059165   -1.90380761885664
H          -1.48289676675534    1.02894233086638   -1.72580658806797
H          -0.87619746046568   -0.32867014552480   -2.19414494150045
H          -1.86328415214847   -0.45391405548873   -0.53496648278382
N           0.74767691068601   -0.92278557742773   -2.21726035515239
H           1.28935585352043   -0.92010026848076   -3.07178341462813
H           0.87637538472944   -1.82193756796749   -1.76938771773800
H           1.14179466774618   -0.21713301117017   -1.59762879526645
