    26
        -50.44450998  Gyration_radius:  2.48714667091 Dipole_moment: 6.923
 S           1.86114192742932    1.54213109656124   -0.32072241070329
O           0.71746189836206    1.17765672257954   -1.11782757679994
O           2.58073219986435    2.69650436956028   -0.70526590119087
O           1.38032571692375    1.64673980681242    1.16462626617181
O           2.82303661705857    0.33404479923537   -0.24250833397351
H           2.31496925827749   -0.39604199342689    0.20510132286938
H           0.38963940292388    1.71990373587083    1.20408361727616
O          -1.13137457612258   -1.01355523097106    1.49569550902514
H          -1.61280472826788   -1.61568524421636    2.06467974016477
O          -2.00885668156078    1.33625629105831   -1.23003663383631
H          -1.05598863800985    1.34940740723903   -1.41309325140540
H          -2.09077303076851    1.72623612928846   -0.35376000295534
O           1.48823527724630   -1.44592536180013    1.09658863186869
H           1.86614270965251   -1.37078781538450    1.97522307171292
H           0.52129915468079   -1.27960257866547    1.19249298580311
O          -1.20131103944717    1.63429073245860    1.52231589308330
H          -1.25292547430866    0.64722926780339    1.55035388817371
H          -1.35906105534768    1.95303642876385    2.41301416223176
O          -2.03551503784977   -1.32612783016118   -0.83493376484746
H          -1.21042497714093   -1.57079508192438   -1.32390056742563
H          -1.51845820499803   -1.16788519445117    0.54324350776499
H          -2.20823719858925   -0.39469946680446   -1.09624275627738
N           0.42423928386168   -1.60793552274368   -1.88654037416978
H           0.63835412096285   -1.85710315300142   -2.84347607196721
H           1.06884117202917   -2.10432581075640   -1.28347013145343
H           0.61131190307250   -0.61296651285338   -1.77564082910694
