    26
        -50.47216060  Gyration_radius:  2.412447866 Dipole_moment: 6.330
 S           0.76338346123840   -1.57014157152470   -0.05453506154705
O           2.09842214351977   -2.36182444366818   -0.08418049784665
O          -0.31857035432914   -2.46094761800157   -0.40239611545937
O           0.60793596610253   -0.97626477895862    1.26305682925469
O           0.89396913334228   -0.50749858192567   -1.07929805214427
O          -2.64164549838394   -1.33556560318535   -0.11807065912124
H          -3.32346495419317   -2.00547484585848   -0.19060068755465
H          -1.77698724748977   -1.82364673061820   -0.16279572183423
O           1.84711956918741    1.76865106071839   -0.23870916951691
H           1.51557693917536    0.89050402001765   -0.55082726956655
H           2.26819201356375    2.18257761553133   -0.99393492728916
O          -1.55166667424364    0.49463792657805    1.79739553613697
H          -2.21197356751522   -0.06829342636815    1.37613810481374
H          -0.72648708921503   -0.02834828998256    1.76101876556868
O          -0.81442983407169    2.44436578443769    0.17149115631181
H           0.15883602524289    2.38191526651204    0.18035061806660
H          -1.11699888568482    1.89692041332022    0.93712229104174
O           3.15615220571255   -0.31631071286935    1.20920688240528
H           2.72619111123940   -1.72492371254741    0.32358453116843
H           3.08028170061228    0.55341572947647    0.79249407695167
H           2.29175577697773   -0.45084386881102    1.63460467493842
N          -1.41049339807498    0.60949119388292   -1.54706937579749
H          -0.48093798688395    0.09634922220809   -1.50981321957900
H          -1.66895461088995    0.85682292229156   -2.49532140512770
H          -2.10669797949864   -0.02454720105566   -1.11193924249839
H          -1.25850794549874    1.47898020044249   -0.90697206185327
