    26
        -50.46806096  Gyration_radius:  2.49215050707 Dipole_moment: 2.764
 S           1.66172487994830    0.49626048121760    0.87127449203500
O           1.07668899866097    0.86394269378864    2.14446164140827
O           1.77163039082846   -0.93618669770506    0.65598629567239
O           0.98597315997246    1.13693166530994   -0.24865768197707
O           3.14357277291885    1.06079151508157    0.90692158556839
H           3.10685558731343    1.69053971043060    1.61985192362224
H          -0.50262965324780    1.41385991537695    0.48823559706506
O          -1.40476562779262    1.51094926464271    0.85511550739186
H          -1.26770633286980    1.69581792242338    1.78732460764872
O          -0.36615196259752   -0.29699631482858   -3.24125112671929
H           0.44402965858028   -0.13484782038831   -3.72728894796553
H          -0.65262339365208    0.58801205746364   -2.90384041342081
O          -0.14310657512381   -1.44389257897423    2.65600745553919
H           0.24915491459471   -0.54903069549602    2.63223514843517
H           0.55260857815150   -2.01006612983303    2.31171122086600
O          -0.79846106856120    2.03794498440539   -2.07988281330955
H          -1.53988523061778    2.09927021043124   -1.47020988550034
H          -0.02260616273407    1.88880800453724   -1.51459493372228
O          -2.00578926346980   -1.11456699430101    0.75392770730763
H          -1.00306550434895   -1.50808336902498   -0.35042912542349
H          -1.49790096070988   -1.34518688594092    1.56297421881099
H          -2.01271941224706   -0.13487811245468    0.74352532427530
N          -0.15003020632305   -1.71707482100655   -0.97712456693335
H          -0.21929970082472   -1.16886477527445   -1.87341298198529
H          -0.09902164609425   -2.71017130641679   -1.17915590995488
H           0.69352376022288   -1.41328190350359   -0.42370432873778
