    26
        -50.44665499  Gyration_radius:  2.47578225244 Dipole_moment: 5.165
 S           1.29492239749777   -1.04752975539968    1.14557509726044
O           0.66406966512281    0.24642293713894    1.15081837314041
O           0.90129593563267   -1.93928762097885    2.17683128422488
O           1.05070402624975   -1.69101578245026   -0.25603395057087
O           2.82486077021644   -0.87963359454402    1.14547892879576
H           3.00444814441231   -0.31700694354578    0.34479828971691
H           0.24263235794920   -1.30388513841851   -0.71280159824839
O          -0.94811522394438   -0.73914380815708   -1.56082957631062
H          -1.41942726254570   -1.44948651641093   -1.99869002279496
O           2.96223218290343    0.33590199578887   -1.14211956104240
H           2.16589548512426    0.85570779817510   -1.36627075638363
H           2.94071651119087   -0.44282034919479   -1.70417577501800
O          -0.73067301248363    2.38583740993433    0.19404991346538
H          -0.25806019036616    2.40472718896259   -0.64740875513708
H          -0.21251910870637    1.77590509918007    0.74047806661334
O           0.63059063588024    1.39877701227322   -2.12536437248973
H           0.03230583785650    0.63887853830564   -1.99002802258601
H           0.51262977289914    1.69508559702006   -3.02937007090142
O          -2.57880424635031    0.45457935361370   -0.06527614458871
H          -1.64593494448431   -0.26481502343268   -0.94653927734750
H          -2.48666513372616   -0.01062892566804    0.80286389513322
H          -2.08948722366659    1.30013604211848    0.05198913383959
N          -1.88154597279640   -0.76923194626807    2.23233533641226
H          -2.23607164839295   -0.42963610854198    3.11859070907896
H          -0.92802858539460   -0.43058474690181    2.13672912059049
H          -1.81197117002873   -1.77725271262195    2.30436973513357
