    26
        -50.46805731  Gyration_radius:  2.4929022866 Dipole_moment: 2.765
 S           1.77903300473523    0.66412769993680   -0.41505774237904
O           1.98192384218057   -0.14167947310696   -1.60145229368407
O           0.90070320256486    1.80436837281504   -0.60867373802949
O           1.34584015539219   -0.13741099778729    0.72183294692160
O           3.20492616408958    1.25591557535767   -0.05164569445252
H           3.79778393503978    0.65251914358417   -0.48831107713325
H           0.66941960617875   -1.42265576157583   -0.12986478644396
O           0.19220233504706   -2.14233730773180   -0.59058383684919
H           0.69506758747134   -2.28897742860428   -1.39531233022735
O          -1.46915080580340    0.32801701494397    2.90977369770315
H          -0.94370555947489    0.81146280837437    3.54936726169045
H          -1.01736670657459   -0.54604177338689    2.80388116094112
O           0.03694690487266   -1.78941934808160    2.42675421529632
H          -0.26769913477240   -2.40317443317619    1.75170785952481
H           0.68056927280431   -1.21997977609343    1.97366867712246
O          -0.16448231536687    0.66076198061954   -2.95202536185427
H           0.66497493650649    0.27727194388031   -2.60511130618912
H          -0.12188658365024    1.58284115248954   -2.68543659853537
O          -1.89793330055591   -0.62403523219834   -1.35836348124210
H          -1.42106127427671   -0.20299861773988   -2.10744290950143
H          -1.29906935987745   -1.34110789920500   -1.06307537883994
H          -1.76723650109854    0.46235522252357   -0.27145224530914
N          -1.47894888861368    1.25998462373689    0.39561081384149
H          -1.47243577715393    0.91291690484114    1.38958377101621
H          -2.11910717857725    2.04186679512373    0.30354669330293
H          -0.50930754114806    1.54540881046628    0.09808168331154
