    26
        -50.44119996  Gyration_radius:  2.70599640438 Dipole_moment: 4.299
 S          -0.91333799149013   -0.23891738990796   -1.49829050489523
O           0.11465651371750   -1.20110849895818   -1.21550880428729
O          -1.26006928419788   -0.06487714635079   -2.86581114629453
O          -2.17796205938401   -0.61961145166689   -0.65030469905310
O          -0.55543421473786    1.12034814640038   -0.86962978570326
H          -0.63549805673420    1.01016530483107    0.17102242532618
H          -2.45567789464378   -1.49177066394514   -1.06482197615872
O          -0.78633851700041    0.70118463927729    1.58743575083905
H          -1.70358623261798    0.43014438575291    1.67353520812074
O           1.49284810721749    3.01696662327652   -0.67670431222621
H           0.85102715484962    2.34538824590276   -0.94596750175930
H           1.16522223476065    3.85933558287321   -0.99587327665342
O           2.93478528028229   -0.21337892503151    1.92784973644334
H           3.36468592621394   -0.32241816210684    2.77696679553982
H           2.57952676504286    0.70623981490088    1.91630813362744
O           1.68961946326124    2.15830538369659    1.93891129959868
H           1.77330565529588    2.54043659074872    1.04802711264219
H           0.77192586657532    1.87467821662498    2.01954116471971
O           0.60476874690024   -1.40785822027434    1.41896856566056
H          -0.22973178390488   -0.16729044373679    1.62895170162242
H           0.54195999667711   -1.49818510395335    0.44969770324031
H           1.52528598844224   -1.10159780233317    1.59721274542514
N          -2.27899996100461   -2.71894360205795   -2.14035886459921
H          -1.36603955150920   -3.08559083665932   -1.89780039828654
H          -2.15601087054719   -2.13877614780416   -2.96359311736098
H          -2.89093128148940   -3.49286852948988   -2.36976394543370
