    26
        -50.46194856  Gyration_radius:  2.51146025784 Dipole_moment: 4.753
 S           1.75281205153549    0.34943252492127   -1.14358804516738
O           2.44337847562667   -0.51200676112065   -0.18954733372419
O           0.57671564194234   -0.28334111728386   -1.70085598654060
O           1.50594929378869    1.66948555544915   -0.59100299846159
O           2.74557748026152    0.55923052368250   -2.36126303969227
H           3.43898124108377    1.11104359043594   -2.01154643200540
H           1.02097713088572    1.13689532983900    0.92913997106179
O           0.71973203602351    0.82876880934627    1.80785808737195
H           1.52087888574925    0.59080654314833    2.27832731557824
O          -2.94022621138861   -0.87962573747732    0.44671598500858
H          -3.74332912991939   -0.45804014057777    0.75362340725244
H          -2.59543376995057   -0.30566116573089   -0.28859236205543
O          -1.93565062354087    0.73198278872467   -1.36683470365874
H          -1.07439419581319    0.38076889808026   -1.64550373579265
H          -1.73150590454496    1.57276344548979   -0.91222952930476
O          -0.89879205678890    2.79627007078928    0.07672067454107
H          -0.01851176181190    2.60963935606898   -0.28881789519756
H          -0.84622798969135    2.53846714784798    1.00110227029672
O          -0.82005787964479   -1.40595492444820    1.91925539449113
H          -1.68437749778523   -1.22957888812523    1.47344904321456
H          -0.03652875637468   -2.03737070336386    0.83160435731768
H          -0.37212451469298   -0.53910849455010    1.99204970401447
N           0.58463405832590   -2.30098793072464   -0.03664470198228
H           0.18849716189398   -1.84110688692678   -0.87354686156089
H           0.69954887192267   -3.30105518124306   -0.15634922860751
H           1.49947796754306   -1.78171666495177    0.05647665228662
