    26
        -50.44926947  Gyration_radius:  2.40424339448 Dipole_moment: 3.104
 S           1.62399335754284    0.32415576812414    1.10194040083578
O           1.43613962276407    1.66214446232034    1.58775912770075
O           2.95054496616445   -0.18101206077232    1.00042223272979
O           0.82026919735449   -0.65633148245292    1.98446005195575
O           0.94931170043813    0.22977559322868   -0.29116877075443
H           0.44677989318130    1.06696352360392   -0.55027370854125
H          -0.17078267006567   -0.60486097030359    1.78064521108985
O          -1.62613969339977   -0.60370208448465    1.30607536639311
H          -2.17094438801479   -1.18248108411420    1.84307828297307
O           1.75503618021246   -2.43465244032533   -0.02207489771822
H           1.82960178186238   -3.03602554593143    0.72202105870964
H           2.28396163062727   -1.65664382597114    0.21210253077710
O          -0.31982979616665    2.38432209768753   -0.88389422601444
H           0.32474626060915    3.09322103504560   -0.82264781797111
H          -0.83395821547385    2.41801650556539   -0.02847439743817
O          -1.21797178243187    2.15503536976412    1.54205738764529
H          -0.28395498180860    2.08602397367604    1.81441516858253
H          -1.57422973216625    1.25475457612881    1.55225806426260
O          -0.91921114672765   -1.96204654683605   -0.71003075464460
H           0.02219933358628   -2.15419708204393   -0.54104351909912
H          -1.41465389896336   -1.13436012062937    0.44655476211542
H          -0.92345998136069   -1.34283169625206   -1.47964621794961
N          -0.81563159193309   -0.13010620744558   -2.72025826281544
H           0.17011890639597   -0.16713832800533   -2.94784678463894
H          -0.99831711255688    0.78113564122179   -2.31646422474095
H          -1.34361785966426   -0.20915908063059   -3.57996606340325
