    26
        -50.44280956  Gyration_radius:  2.71024122963 Dipole_moment: 5.281
 S           1.34790149459729    1.46241977535833   -0.42700944164551
O           0.28536251343158    1.77749775365343   -1.34865728797259
O           1.46060097338723    2.29124159996238    0.72802250176340
O           1.15353406744944   -0.01611861388622    0.00059168590086
O           2.69485474400826    1.43642520190953   -1.16763460889586
H           2.49897974515903    0.99891755799732   -2.06956605630004
H           0.18592548208500   -0.26335008858518   -0.28842105628003
O          -1.19348076617428   -0.45104262325895   -0.75612621548785
H          -1.23334679697682    0.39517404723536   -1.21919240627033
O           0.11677868081739   -2.72064442275832    0.50080951057142
H           0.84323892303268   -2.10170060160608    0.62524188444248
H          -0.46797112678394   -2.31231007872002   -0.14795462748736
O          -1.51799907794133   -2.36500056014709    2.65654980138157
H          -0.86172251120126   -2.59903163861961    1.96992156102334
H          -2.11012346902420   -3.11384909556810    2.73608001679561
O          -0.67399231228084    1.91932890323820    2.33315157987183
H           0.14861214613475    2.03717419292921    1.82451512145959
H          -0.95506185550700    2.79838925064195    2.59236664109301
O          -2.34196727241752   -0.05636635893960    1.48629467336582
H          -2.12473928307825   -0.84282977822624    2.02721727060209
H          -1.80958763912922    0.67045200924092    1.86208883825046
H          -1.73366192395609   -0.31625647258290    0.10305968914582
N           1.75225445531614    0.40130880253909   -3.33017414366103
H           2.05279282042575    0.70782556406610   -4.24574129025198
H           0.87781100058398    0.86129544410901   -3.09229547442569
H           1.60500699803266   -0.59894979998116   -3.35313815698160
