    26
        -50.45283498  Gyration_radius:  2.4616868179 Dipole_moment: 7.994
 S          -1.86774052605605   -0.41794639359427   -1.48527588510215
O          -0.51741494190421    0.10447895804513   -1.84198874849915
O          -2.82145086501710   -0.32067656769988   -2.53190136689077
O          -1.71654596496224   -1.74722189115238   -0.88835559593943
O          -2.34126484460173    0.51945820928644   -0.29149274309870
H          -1.58646410841321    1.05234433795890    0.02929442478072
H           0.06724012611376   -2.25879189720096   -0.52773867326544
O          -0.36964055975967    2.04181575528915    0.73075946465571
H          -0.73786838901608    2.91356959907937    0.87929611466645
O           2.94953875121214    0.26052246395033    0.30394240973473
H           3.73909921466325    0.69832330692506    0.62508788808187
H           2.36070806501779    0.14991657535572    1.06467384965557
O           0.61780540872238   -0.25669880938997    1.83689311777474
H          -0.20914864744314   -0.76640542893887    2.01695924806035
H           0.29299915040237    0.62978802346323    1.60316142828360
O          -1.72417786263938   -1.47991082471213    1.72369758885803
H          -2.47786300507149   -0.92206752091741    1.92519046478400
H          -1.79660632373335   -1.65577575973644    0.75487079264761
O           1.32121469601388    1.95899460741606   -1.23243828580809
H           2.00442384626091    1.36445145976282   -0.87970468470952
H           0.70790939972444    1.39636060954049   -1.73889861892647
H           0.29049425273304    2.12824457945921   -0.01924322155781
N           0.82284274456114   -1.56024584169035   -0.51093907636516
H           1.72337874904529   -1.90658362612157   -0.82324059425921
H           0.87965545068062   -1.13071928790516    0.44674842027827
H           0.38887617346696   -0.79522463647256   -1.16935771784338
