    26
        -50.45755863  Gyration_radius:  2.40658442029 Dipole_moment: 6.977
 S           1.59330353907656   -1.04476102518793    0.61122678897791
O           1.44134658798366   -0.99723364822343    2.04601427107678
O           2.73038660433358   -1.70791821265043    0.07202665597580
O           0.30558064499259   -1.87111170527853    0.06159103293153
O           1.39297322446311    0.29475758852607    0.00795796900932
H           0.47887705583789    1.46267227638786    0.50863331304063
H          -0.46735400436311   -1.59487234678352    0.61013098431362
O          -0.16709278699107    2.18027474370217    0.76521884992299
H           0.30328578427425    3.00998925817649    0.68204699648641
O          -0.56164572765157    0.44571234061784    2.89282808752628
H          -0.46429735961313    1.26373826496693    2.38153698414527
H           0.26984839740307   -0.06537767443023    2.73297588393933
O           1.99344543116312    0.50350292527363   -2.50744019746985
H           1.99219609114937    0.37787045566718   -1.52636015358855
H           2.46504529546193    1.31914732923909   -2.67869350112864
O          -1.88027876303328   -1.03898222704151    1.28821873549245
H          -2.34374334440635   -1.72202331393776    1.77429129189201
H          -1.45283075484291   -0.43791196204894    1.98774857824159
O          -2.01545345927815    0.85513759080289   -0.70542614427020
H          -1.08839706739367    0.07230560855826   -1.68958590770681
H          -2.22649197554527    0.18815285805162   -0.03033783377557
H          -1.45395138344409    1.50216574501750   -0.23361420398899
N          -0.39717004166629   -0.58974970514940   -2.17836642621763
H          -0.83782699158790   -1.11019338224543   -2.92949235367413
H          -0.05116862947063   -1.23102293104778   -1.42338182984278
H           0.44141362315009   -0.06426883095812   -2.51974788129133
