    26
        -50.46114343  Gyration_radius:  2.69242238336 Dipole_moment: 2.312
 S          -2.57849006570896    0.76480568878710   -0.61657327425973
O          -2.73064761361591   -0.26806097754999    0.40620097704933
O          -2.45662336532619    2.09231677646173   -0.09275485647797
O          -1.46615880719309    0.42146967037155   -1.51657900467321
O          -3.89991411018885    0.68452580157529   -1.49181942183348
H          -4.14977947546991   -0.23367487908193   -1.43713938044429
H          -0.40670962967768   -0.81384681033044   -1.38552909702728
O           0.30775842993146   -1.49494941971322   -1.33530497486269
H           0.17423404477949   -2.07322551169934   -2.08718657860620
O           2.38260594562089    0.34298905450732   -1.08758024486478
H           1.72927102499216   -0.34455141337511   -1.30351615241998
H           1.85950522797820    1.12670995432276   -0.87436184624947
O           0.24730935177505    1.95676961929886   -0.25472741676356
H          -0.25982849328985    2.75927820674488   -0.09684462829503
H          -0.32913031932410    1.44201442203723   -0.86608986925484
O           3.30195691779900   -0.63232949542351    1.20316469551396
H           3.06456050245388   -0.18930451283626    0.35179906569126
H           4.15453453124358   -1.04505420030483    1.06304619053073
O           0.96636911110262   -1.91509149977505    1.31848068658030
H           0.09910479432221   -0.68929716736037    1.64708973756262
H           0.76516732593049   -1.99058544737012    0.37042825970321
H           1.87984393706447   -1.55291110677082    1.37254471569737
N          -0.50663156080848    0.20382776183359    1.69591618921194
H          -0.59977396903997    0.53745523021536    2.64922951774787
H          -1.45883035513543   -0.02844728085855    1.28725073594583
H          -0.08970338018504    0.93916751631415    1.08085598476841
