    26
        -50.43216871  Gyration_radius:  2.71643885684 Dipole_moment: 4.929
 S          -0.76623962221311    0.68364824177888    2.51632485570058
O           0.20545446813091    1.72710850940736    2.60294488217084
O          -1.07301181119819   -0.05080941554626    3.69212232550002
O          -2.13544452741915    1.32647475378857    1.98211692090853
O          -0.42964263305681   -0.25077341878151    1.36142196442729
H          -0.47106195331806    0.40114097719837    0.50157415046052
H          -2.69244286434923    1.41943916796662    2.75033143598873
O          -0.69165329009081    1.26923612765789   -0.55713257056639
H          -1.52742067237991    1.69792435649312   -0.35788028657811
O           2.10959150043553    1.29015008032832   -1.07907342165542
H           1.22217810382981    1.64486122417907   -0.95419780628967
H           2.42029552720457    1.06473962498399   -0.18122029464851
O           1.60949057251422   -0.77006780843744   -2.68351693971734
H           2.03462182581704   -0.57017865759460   -3.51833937268769
H           1.87956724962780   -0.04663622961283   -2.06544845939057
O           2.44865027245222    0.61388586223762    1.53824511346702
H           2.19229864744775   -0.29989019757274    1.67508357062646
H           1.77048504185184    1.15713102979531    1.97462440739203
O          -1.01803129941533   -0.47979856713732   -2.32871363721612
H          -0.85985570748656    0.59623342790882   -1.34884498032012
H          -0.08155811670936   -0.62982638896682   -2.59751208999905
H          -1.23339998005055   -1.25735898657911   -1.75966576362848
N          -1.26980776457887   -2.46960308863016   -0.50411197435885
H          -0.53839622286295   -3.14247421963886   -0.69812977277734
H          -2.11270434458818   -2.98227810478603   -0.27870187734898
H          -0.99196242955036   -1.94227828047460    0.31769961052812
