    26
        -50.46254540  Gyration_radius:  2.67418635879 Dipole_moment: 2.244
 S           2.35863852385542   -0.80429062939793    0.99266965469893
O           2.50854959960478   -0.84386919655344   -0.46196104223639
O           1.91505480292602    0.49163701763341    1.45757732638686
O           1.55685363780199   -1.90989293400211    1.48213667582918
O           3.81434929605710   -1.02081224769381    1.58505593479705
H           3.96115615556214   -1.93593980541227    1.36987963934381
H           0.01509347377713   -1.61374441008876    1.25912353770397
O          -0.95937492873963   -1.46801336366678    1.12704836883570
H          -1.39095838885826   -2.09446809719086    1.71072650878929
O          -3.18831390793337    0.87348917827750   -1.13237317948196
H          -4.11814239430355    0.77740696217429   -0.92512258150696
H          -2.73607441799900    1.09069034608484   -0.27802390759537
O          -1.81128249785864    1.17103367922937    1.10814695123547
H          -1.50025484230064    0.26162757642045    1.25726946105543
H          -1.01989456779952    1.67389959032558    0.85921134287979
O           0.56375676053571    2.22959733858400    0.13173910380174
H           1.09846834008929    1.58529152550111    0.67275352433001
H           0.91593444666979    3.09779173633180    0.33177097549178
O          -1.50701543863190   -1.16277686175647   -1.52506795015273
H          -2.22104205220049   -0.48646139515957   -1.50092812466061
H          -0.25968033569097   -0.30971587257307   -1.76637379956114
H          -1.36752615300001   -1.42691618019992   -0.59527281392117
N           0.62041266052547    0.31597665532247   -1.80829430656454
H           0.46080231071914    1.18580534001982   -1.27153506056935
H           0.87421747058521    0.52035580400411   -2.76835886170053
H           1.41627243657897   -0.19770175610090   -1.31179739723929
