    26
        -50.45651685  Gyration_radius:  2.48718865007 Dipole_moment: 4.648
 S          -0.11854144333014   -1.82489997341348    0.19657732310940
O           0.55017589780716   -0.75075570730260    0.95562696432825
O          -0.72538896527385   -2.80622445250783    1.04297639942509
O          -1.30157845235151   -1.15069476305966   -0.59229714592378
O           0.80385567964033   -2.34705650457939   -0.81587645253861
H           2.06131056156611   -1.52489572078002   -0.81092127412359
H          -0.94754938454427   -0.50384619302167   -1.23987883645813
O          -0.52399895705987    0.92664912912588   -2.06831080707029
H          -1.35454668551934    1.27345786935036   -2.39748847547671
O          -2.25037086313686    1.63533712709098    1.57121908474539
H          -2.31968102529646    1.98768814670122    2.45984487387741
H          -2.29292347944596    0.65777277226232    1.67637729584702
O          -2.45206251310191   -1.02003581763298    2.01640008233925
H          -1.74385015620880   -1.64848054038875    1.77324772245427
H          -3.22719594113603   -1.33244166139233    1.54429392685387
O           2.17416178928661    1.55265239278517   -1.61551265768483
H           1.45646038674527    1.32523103866569   -2.22286191063386
H           1.73218683537450    1.97742701021028   -0.86566172210703
O           0.09847933837958    1.75017206293539    0.31838394634112
H          -0.75856177520467    1.93280053494463    0.76146925433876
H           0.30637625349814    0.84170651177372    0.63978548268493
H          -0.36802861719732    1.35660200278551   -1.17759268274549
N           2.71302551384768   -0.75920278151206   -0.40361829428704
H           2.67026160316304    0.12146242855985   -0.98059726171559
H           3.65983112600528   -1.07794575881517   -0.23360406261341
H           2.15815327352946   -0.59247915269709    0.46801922702564
