    26
        -50.44677695  Gyration_radius:  2.54259934594 Dipole_moment: 3.963
 S           2.36203310659816    0.08239850932362   -0.27348683038164
O           1.18350179439535   -0.00524178096144   -1.10075623590862
O           3.55130475621972   -0.49595724562405   -0.76790116168760
O           2.59562540635788    1.58316684691751    0.05982629132972
O           2.03538028392769   -0.55101703387473    1.10468972098924
H           1.13194427866984   -0.24327263066610    1.42153448824802
H           1.71111907632340    2.00872312597592    0.18459678890061
O          -0.25156372916855    0.28487627867046    1.93363500497698
H          -0.33126022441347    0.14439519884006    2.87876004301998
O          -2.93034776424139    0.01515917118008   -1.05451513886797
H          -2.22601753377773    0.63755530041528   -1.35194033985525
H          -3.23921980863989   -0.43052021576211   -1.84398938865227
O          -0.89493332881232    1.57318321915236   -1.81209377987188
H          -0.72109944712805    2.24145973694775   -1.14067934055709
H          -0.15127513823138    0.95144890253789   -1.73711461251281
O           0.21589711638765    2.55869462939579    0.62818624091360
H           0.26887964391307    3.28245993900029    1.25584083346842
H          -0.10919179756976    1.77126987874552    1.11809434462892
O          -1.75665717428396   -1.41457151934653    0.88281196648379
H          -1.10945130191282   -1.97152563120432    0.38045446552863
H          -0.91395169710291   -0.40357131338628    1.49411811503974
H          -2.27895742434701   -0.92818223251867    0.20623464309309
N           0.22565211739065   -2.63235879289085   -0.47940489249770
H           0.58304671386583   -1.76866072981141   -0.88306329859944
H           0.09857857068758   -3.29713948597590   -1.23229379516927
H           0.95096348488239   -2.99277213505270    0.12845587792480
