    26
        -50.46254535  Gyration_radius:  2.67459696694 Dipole_moment: 2.242
 S           0.45237650577289   -2.37534462636870   -1.16298486979921
O          -0.82146266860089   -2.51661960067028   -0.45774197424040
O           0.44829355850438   -1.24903063541743   -2.07063615045308
O           1.57890418823072   -2.38913678648341   -0.24887053568933
O           0.59849183479322   -3.67562656692819   -2.06006645747544
H           0.75104818380231   -4.33700773269449   -1.39327003126739
H           1.74197779369227   -0.97513504885995    0.45030255445348
O           1.87007003028084   -0.10619624908207    0.91595262431594
H           2.76250764995328   -0.13486746510541    1.26544424170413
O          -0.98533399002914    0.87593918380431   -1.88874122925470
H          -1.28324746653852    1.11102722121992   -2.76837212158355
H          -0.42166666682757    0.06110291891142   -1.99871215827578
O           1.02344958831668    2.15066539697452   -0.45554941815133
H           0.35724182951068    1.81499482043099   -1.07573436374862
H           1.43196964355166    1.35892273811829   -0.06538755769172
O          -0.34440191114744    3.08305916403394    1.60944742152186
H           0.16128896765441    3.77094453113211    2.04274037729374
H           0.15671482798242    2.84801590322193    0.78772545142971
O          -0.35726521159015    0.51994292681970    2.35637666592597
H           0.50488975470389    0.24888239072339    1.98638923813076
H          -0.39584931713624    1.49630280754338    2.24239456813297
H          -1.30315998559783    0.02704483035190    1.25874043199813
N          -1.87048489819328   -0.30680024944085    0.40184367244490
H          -1.47877544419605   -1.25286443654671    0.09309421917546
H          -1.72211798217932    0.33888775230248   -0.39268135948772
H          -2.85545879480753   -0.38710319814311    0.62829677065829
