    26
        -50.46516761  Gyration_radius:  2.53867285327 Dipole_moment: 5.803
 S          -0.20033963247730   -0.57538156717047   -0.12133819849450
O          -0.02995413946150   -1.88825150378516    0.44548021117455
O          -1.17413235807054   -0.53551581915328   -1.22434926357780
O          -0.83671600506455    0.37426044777177    0.94313626439832
O           1.05886513308997    0.03612126331311   -0.53655865969083
O          -0.53444600911576   -2.49142939109810    2.98525725979678
H          -1.44094470203792   -2.79407345283828    3.04999575943839
H          -0.34786454260253   -2.39125274482156    2.02824888201080
O          -0.02234674174936    0.09425408199427   -3.58562495092224
H           0.62440587426166   -0.57092534134379   -3.82597169502091
H          -0.47824751032601   -0.24917501130627   -2.79165540921768
O           2.45576146797925   -0.90850141155140    1.52280691666243
H           2.09756911865305   -0.51731127131089    0.70312382388880
H           2.21729542509903   -1.83870903766431    1.47945607406170
O           0.81300748102762    2.15071179697102   -2.07106195556988
H           1.12873955071772    1.46673560354572   -1.43526574767937
H           0.65260588804684    1.62748188167010   -2.88289598496828
H          -0.57593124421150    2.25465149730196   -1.53427839995780
O           0.48053798009507    0.00287643393532    3.05311747626782
H           0.10865668992682   -0.85924537825492    3.32683806900361
H           1.35754553394210   -0.21963940855855    2.66122104697092
H          -0.31342992481934    0.27169994414914    1.83005851045037
N          -1.55943733525552    1.99862058632996   -1.10973921919069
H          -1.57926446552239    2.20175395157743   -0.11163677170285
H          -1.57119280710949    0.92384755893564   -1.19508195666276
H          -2.33074273501656    2.43639630135050   -1.60328208146552
