    26
        -50.44557241  Gyration_radius:  2.50180283391 Dipole_moment: 3.539
 S           1.59623115402068    0.96070641830509   -0.92942369496094
O           1.29655551825127    1.27740120480340   -2.29583318073233
O           2.71408375393491    1.57648505551648   -0.31292254186802
O           0.31626100616883    1.28123476762365   -0.08229213694219
O           1.74983177694989   -0.57146381631668   -0.77670255350336
H           0.90173790674941   -1.04116318996842   -1.05667557157251
H          -0.45787442983908    1.16353264707832   -0.68624883361678
O          -0.47585928946559   -1.68382033583927   -1.36981625757518
H          -0.38128442283499   -2.62257316243619   -1.53978072707042
O          -3.20163211836154    0.74257453447153   -0.07831561967784
H          -4.12835183122294    0.88528820233203   -0.27480269840012
H          -2.70336748228916    0.95114640713449   -0.88068028727180
O          -1.28783896544621    0.80396107212868   -2.11780552210686
H          -1.20638874205345   -0.16443577419853   -2.12263601053665
H          -0.47857039067271    1.12737880223007   -2.55535185796737
O          -0.10445933279664   -0.02551011973370    2.43568986403718
H          -0.23090528547167    0.82874134004589    2.01374341881087
H           0.86822437337013   -0.18727927206962    2.37750354176209
O          -1.69860140417116   -1.39479020890323    0.82529815824901
H          -1.09184530100207   -0.99656708259262    1.49885153598793
H          -2.35583851060854   -0.70136462242966    0.64477927194701
H          -0.97067061205997   -1.60694342222816   -0.46613970565640
N           2.57026414894044   -0.16325431792957    2.03101895222198
H           2.86587994851154   -1.04070599202543    1.62099331745026
H           3.20958744583098    0.05474098248881    2.78585126603529
H           2.68483106556336    0.54667988251215    1.31169786296034
