    26
        -50.44075678  Gyration_radius:  2.56993881752 Dipole_moment: 5.622
 S           0.50510181171468   -2.06771984910480   -1.02408171517844
O           0.80227241273001   -1.23992463156948    0.11868232124685
O           1.24885875748425   -3.26158605926685   -1.16975835700596
O          -1.02805085535765   -2.33713688382110   -1.04490909969167
O           0.66508656670983   -1.20345722111191   -2.30329848098875
H           0.05701508865896   -0.43361421330138   -2.14324079420168
H          -1.43809538738282   -2.21720929124905   -0.13895800798178
O          -1.82402252846166    0.80769753226627    0.85158223753143
H          -2.24280230997131    1.61269442471987    1.16054511804690
O          -2.29082429922515   -1.84212237432681    1.14251466617427
H          -2.18713578971346   -0.86828776020793    1.15235222750472
H          -3.22444217273666   -2.03048940241371    1.02638830030518
O          -1.06525818092272    0.65168964887171   -1.71971248687906
H          -1.87122342443158    0.34317852251135   -2.13914827774722
H          -1.26687295964156    0.72373494400379   -0.75676596697584
O           1.92566222237510    2.46529554882557    1.51499687527741
H           1.98191787187243    2.13258649452990    0.58217529162796
H           2.80998466589871    2.40475876681949    1.87877075041641
O           0.29510492925396    0.44591389421219    2.22183099433494
H           0.63124367848285   -0.27427620032944    1.66694153638589
H           0.88456079918890    1.21765654724545    2.06278536718438
H          -0.98199437849909    0.70372506482529    1.41782567007635
N           1.95803620842312    1.24677744556803   -0.88029235887639
H           1.20656822352076    1.57811686177608   -1.47362710180199
H           1.67825156745585    0.33003184382341   -0.53553211397666
H           2.77105747257155    1.11196637671946   -1.46806658479714
