    26
        -50.44631980  Gyration_radius:  2.51059776025 Dipole_moment: 2.831
 S           1.69532291308247    0.48173500161202   -0.85485964690967
O           0.58509898872234   -0.26994387518748   -1.37844688313620
O           2.95221976610030    0.33453211647389   -1.48199435422513
O           1.30944801523307    1.97629780829657   -0.81616248207027
O           1.83389241878441    0.11686941259588    0.66091890258967
H           0.93852839231774   -0.20437673163557    0.99758958398343
H           0.45716901910832    2.05502371030359   -0.28091817608666
O          -0.46143785705409   -0.49752261589787    1.59901005816302
H          -0.43447409539359   -0.90762252869950    2.46468745048589
O          -2.03904785279287    0.47766949543071   -1.33226957405066
H          -2.00493368420324    1.30080283246388   -0.83750776931100
H          -1.11574366960700    0.22894374921552   -1.51078659689865
O          -0.67660345272877    2.07757147182247    0.80141706879494
H          -0.11586020584149    2.50878709422569    1.47188076549734
H          -0.80461748007488    1.16794807727173    1.13485549279714
O           1.64399643179363    2.55793206677387    2.12732424100141
H           2.18625228602045    3.23171854860494    1.71257815121517
H           1.97196515855421    1.70678716074284    1.80580700179400
O          -2.11187326202396   -1.76989871125266    0.17891158756149
H          -2.36547378427202   -1.03094351826268   -0.41006418302184
H          -1.56321539380925   -2.36450210029805   -0.38976624950492
H          -1.12620360339800   -1.05684199940658    1.03049822424757
N          -0.38720009149754   -3.01193371852961   -1.48301308597085
H           0.09150616455318   -2.12270435553267   -1.61122064439187
H          -0.76424657736195   -3.28619388518208   -2.38159053469044
H           0.30553146579060   -3.70013448593073   -1.21687834784506
