    26
        -50.44075683  Gyration_radius:  2.56999047316 Dipole_moment: 5.626
 S           0.46867076869369    2.10542422955055   -0.96396583587170
O          -0.34966522661621    1.44031325672992    0.01961802754941
O           0.21952685922913    3.47863231680521   -1.19181916769053
O           1.96240422207524    1.84063035866594   -0.61440890165154
O           0.34223679325922    1.33143070651003   -2.30330849238109
H           0.60351489726014    0.40291549050431   -2.06315406426665
H           2.08040077165666    1.59779460351855    0.35014076233786
O           1.19403874817016   -1.36905790042052    1.18601312805561
H           1.23504616584897   -2.26487014982089    1.52467017748704
O          -2.93503055557015   -1.65094965519863    0.85761994447789
H          -2.65433247163241   -1.32838231774793   -0.03749225426973
H          -3.80928278794099   -1.29153145273578    1.01416877934089
O           1.16624742189644   -0.99389059283107   -1.47282715083602
H           1.09697241146499   -1.11923836429148   -0.49683441648303
H           2.10412475679466   -0.98295012251491   -1.67514384883700
O           2.42877340895266    0.96924074987000    1.76212865801545
H           2.00952873162813    0.08804763451473    1.67904114987746
H           3.37113254765789    0.82967604921385    1.87629698379511
O          -0.94671042822537   -0.29421793658786    2.05843476569736
H          -1.70248282597359   -0.82252003660152    1.71490961107232
H           0.32509097685081   -0.97905524351066    1.55095221891861
H          -0.88234400142884    0.49094043986065    1.49369539383556
N          -1.99115995926886   -0.51827525501700   -1.38928488127588
H          -1.27376160862235   -1.09088554250766   -1.81820816855143
H          -1.51389607261405    0.25311293245462   -0.92588871585693
H          -2.54904355347718   -0.12233421872379   -2.13535370226799
