    26
        -50.44403655  Gyration_radius:  2.53937411032 Dipole_moment: 3.665
 S           0.41741115948034    1.89871231053342   -1.21809605521240
O           0.77634791609064    1.67339880392441    0.16228257158144
O           1.47622871042133    2.08307226986324   -2.13927324428416
O          -0.45541498036338    0.67837044259782   -1.67355803971378
O          -0.61531882868675    3.03207071337051   -1.29154502997680
H          -1.15919583429623    2.94208213487886   -0.44504747242345
H           0.16948765542486   -0.15889879232082   -1.71019797632142
O           1.09403401977688   -1.27866354784570   -1.64378337762529
H           1.67379010652685   -1.22390261162233   -2.40661304138239
O          -1.67906268339319    2.40126796643907    0.94538193135514
H          -2.18008895097320    1.58277840673976    0.77899814227728
H          -0.77999418519414    2.11936146341012    1.17560701319017
O          -2.58050908458865    0.04328649386174   -0.15203482134722
H          -3.40710060258256   -0.07827151103190   -0.62276170242542
H          -1.89908410395571    0.26452866445598   -0.81591060013072
O          -0.92038289192139   -2.25426198803007    0.30630168129831
H          -1.55095053490254   -1.52209956398499    0.27689061125883
H          -0.33661104986637   -2.15019661590083   -0.45273248896993
O           2.40122025791738   -0.49170662916807    0.36960720724420
H           2.02851934147919   -0.99584834154889    1.14633405000986
H           1.68145038973679   -1.03573868741410   -0.82582745321935
H           2.00622392389377    0.39429089627601    0.42102780312530
N           1.13575507110688   -1.83464258429396    2.30605009047553
H           0.32365699873333   -2.11118981347765    1.75254660917789
H           0.80643571363494   -1.30087642863284    3.10002190170212
H           1.57315246649681   -2.67692347105490    2.65633168033471
