    26
        -50.45240714  Gyration_radius:  2.50441070462 Dipole_moment: 3.554
 S           1.01077929254990    1.12339592460525   -0.34393559896945
O          -0.31137777315210    0.99292850556022   -0.90923524674370
O           1.09998105083806    2.03989862386999    0.74769683316455
O           1.50428832858495   -0.27607711398702    0.08739667437916
O           2.01943913196137    1.50651825813201   -1.41978661972423
H           2.14467692878900    0.67866179158164   -2.01246742388461
H           0.73831818690060   -0.90697338464933    0.35984774392971
O          -0.32008726544391   -1.86895632698647    0.79453168690318
H           0.07838830021628   -2.44845794026455    1.44793910908422
O           2.26314491385938   -0.68168967102350   -2.66486956841690
H           1.32881252349660   -1.05793601846707   -2.61235595573141
H           2.78887377715656   -1.18915897560067   -2.04167538566679
O          -2.51859936937911    1.60904037427128    0.48601200152973
H          -3.24064962484604    1.58739595835154   -0.14385837675594
H          -1.69815843425221    1.49728634180921   -0.03117931021554
O           0.29648873329900    1.12288479844910    3.13198567079811
H           0.65657953886709    1.46873395772260    2.29188805038480
H           0.07304301356177    1.89487512342679    3.65544876234159
O          -1.78122695705520   -0.33117135391358    2.21738297728335
H          -1.07187730268916    0.14791626345710    2.69483916690664
H          -2.20194863208056    0.34829907898482    1.65477862841020
H          -0.97451375968668   -1.29045193873373    1.31984440530430
N          -0.21119263103041   -1.48808603338729   -2.27005918370548
H          -0.49937320315860   -0.58159265573379   -1.90441706695288
H          -0.33277480468752   -2.15418773201586   -1.51593499760320
H          -0.84103396263480   -1.74309582543940   -3.01981698606254
