    26
        -50.46233100  Gyration_radius:  2.42599104266 Dipole_moment: 5.825
 S           1.51527915747875   -1.06921348933904   -0.80882262228331
O           2.23716354399046   -0.59498935662739   -1.95607629562479
O           1.91359880726042   -2.32927632972192   -0.25559669882779
O           1.88465921779332    0.00669708814533    0.38472345055751
O           0.06567679181451   -0.92361956891778   -0.93372264737752
H          -0.03747192168630   -1.71427143751548    0.55121921103986
H           2.72337330855475   -0.35128901365322    0.65916229133945
O          -0.27353307288902   -2.05601128238447    1.43805868148401
H           0.35951660441418   -2.76240111037064    1.58777715537490
O          -2.55336730796360   -1.28504486519273   -0.04164008591472
H          -1.85514196346359   -1.29831405155424   -0.71279756633506
H          -2.18724643759881   -1.80189284397760    0.68836530441921
O           1.96099486364422    2.03918433139502   -1.73667468923724
H           2.12143492161452    1.09932524334981   -1.96840871659627
H           2.40775343554121    2.18018238599312   -0.90025323960159
O          -0.07471452502957    0.51637929555909    2.27107988725479
H           0.70969235576089    0.60284259921130    1.70891444930381
H          -0.24827456426655   -0.44500613813799    2.26766660679506
O          -0.66354396774588    1.52322599609023   -1.65924231025487
H          -0.41574619249587    0.57823812704329   -1.60819740256032
H          -1.46170520523053    1.53226598961200   -0.32511947011871
H           0.19925534165014    1.97549545074811   -1.75354494712436
N          -1.97949531203918    1.24886845284126    0.57113477668064
H          -2.68235318611064    1.92946182983768    0.83474092520972
H          -1.26411164393921    1.09423047513230    1.33432757151466
H          -2.40169305902503    0.30493223244029    0.36292635089022
