    26
        -50.45782116  Gyration_radius:  2.49143942494 Dipole_moment: 8.376
 S           0.00774551946981   -0.80102469352363    1.48281941342311
O           0.68620352864448    0.42754005980705    1.02947998854266
O           0.80399230301716   -1.59938614582420    2.36073639798194
O          -1.33045473578097   -0.47081075783557    1.98053648747098
O          -0.21548396060764   -1.67531853918515    0.18309158756493
H          -0.70856126284357   -1.13942335052781   -0.47213355003990
H          -1.59867605638604    0.94518027065808    1.67751599872075
O          -1.18630495999710   -0.16338113556293   -1.80979434352284
H          -1.27671900941661   -0.67606555703735   -2.61514430753621
O           3.09574451975143   -1.18410533202382    1.05953910035062
H           3.08247763223829   -0.22492275249822    1.09608015248530
H           2.34244312214638   -1.46621615850142    1.61428750373664
O           2.19209092477918   -1.91908160945423   -1.37082720777598
H           1.39638383012694   -2.33350861909537   -1.02007276230678
H           2.73951946682759   -1.74580322369886   -0.57586757941546
O          -2.77691960998098    1.85329628231867   -1.04437866599012
H          -2.21771919520657    1.14939990132225   -1.44004143524826
H          -3.66409847536454    1.49423026837905   -0.98655951460928
O           1.24078078562917    0.55670851211112   -1.57269595868908
H           1.18698105380145    0.63882586837982   -0.59993186620075
H           1.71066670937523   -0.30194727068895   -1.70553295393583
H          -0.23320054433521    0.20682551696710   -1.82228835604517
N          -1.39702286932629    1.92864548298875    1.24897854322630
H          -0.39310405010554    1.75588014208263    1.02357847050392
H          -1.52478713334567    2.69064021132297    1.90510956457183
H          -1.96197752317583    2.05382264898574    0.37351527283482
