    26
        -50.44561213  Gyration_radius:  2.44528111911 Dipole_moment: 5.696
 S           2.19107259788487   -0.17744554380073    0.05316294639247
O           2.39079063030487   -1.59377876453052    0.15500900800921
O           3.25149371569143    0.62664849291742   -0.45390355628085
O           0.91042817031245    0.06077288022455   -0.79182521782151
O           1.81658477705854    0.39546492769014    1.44557565949643
H           0.86350288097067    0.18738749364798    1.67585059541335
H           0.55331988187398   -0.84616561974644   -1.08321968858189
O          -0.69047854212298    0.08692279665222    1.91293328750644
H          -0.92873820966088    0.42543936270715    2.77806441145805
O           1.53403832196187    2.74401337950576   -0.22614149343533
H           1.89709327545262    3.18922224391227    0.54241374699693
H           2.17459254817159    2.05332113388075   -0.45899259620012
O           0.22309987255169   -2.32987308174336   -1.24594108666826
H           1.05058586893729   -2.55707730026961   -0.79144740215777
H          -0.49977113974177   -2.42283045131677   -0.59014462829977
O          -1.64731787647032   -2.14178566179980    0.68939326191068
H          -1.72767370262977   -2.82240068673037    1.35946903908926
H          -1.34387883983213   -1.33131295345019    1.14525711098053
O          -1.08176841188856    1.93997635751936    0.25326656123877
H          -0.19096305969018    2.23924977240596   -0.01423782601000
H          -1.43924087588694    1.42119335471418   -0.50843313024097
H          -0.89693261504910    0.85590116652475    1.24166279576870
N          -2.04826172923398    0.20642870169233   -1.60464821088155
H          -2.87823739071314    0.39870466175375   -2.15087547851887
H          -2.20388078440596   -0.65208778139172   -1.08939894395868
H          -1.27945934381733    0.04411110904348   -2.24284918518811
