    26
        -50.45146378  Gyration_radius:  2.53176347736 Dipole_moment: 7.041
 S           1.72276499127436    0.04114110095468    1.03794550864671
O           0.84930981971784    0.93162379060674    0.29458898870439
O           1.79941212795510    0.30652022031253    2.43322891358611
O           1.23785803220576   -1.41472203907704    0.77972668702261
O           3.09322262695835    0.02365450305043    0.38833830784915
H           2.90556804382573   -0.22462820094076   -0.63913661447071
H           0.23288008247876   -1.50075651151663    0.71881571836877
O          -1.28744215651632   -1.69008868181813    0.50775055583942
H          -1.59738766527514   -2.42486613317975    1.03941166454817
O          -2.65533991608399    1.29147474081533   -1.32683383410243
H          -3.34422032834898    1.04258026164729   -1.94414776637184
H          -1.83487040632967    0.85816461961919   -1.62660118183600
O          -0.36438962303063   -0.22502014545250   -1.71911402393935
H           0.04213293039236    0.32504547461464   -1.01316871946744
H          -0.75990739232119   -0.96922376088740   -1.24622731737359
O          -0.59969630330353    1.79983805363755    2.40192205549017
H          -0.11825574026366    1.77894582909805    1.56022509133274
H           0.01759375288685    1.41315131611842    3.03121967558958
O          -2.57800680981664    0.37161059671261    1.25776176716211
H          -2.71980506094315    0.84705400619463    0.41709171578712
H          -1.81287282537949   -0.87104267383270    0.82938127313340
H          -1.97407469780810    0.93851253021144    1.78307543503429
N           2.51318027330907   -0.59597979795480   -2.00262868910145
H           2.78802751569063   -1.55069432349985   -2.19250101092731
H           2.94707105399665    0.01550091644516   -2.68151330188040
H           1.49724767472453   -0.51779570189657   -2.08861087862102
