    26
        -50.44258117  Gyration_radius:  2.4901356048 Dipole_moment: 4.864
 S           0.09624877533402    0.06708324735049   -2.38326503826588
O          -0.87420506615551   -0.05717910722896   -1.32303106956688
O          -0.40476795474493    0.15756113555169   -3.70277870053158
O           1.02450086620098    1.26786141518003   -2.03621183711499
O           1.07835594842275   -1.12771704830660   -2.28834690851560
H           1.54734531939287   -1.01378938452299   -1.41539709176540
H           0.58306054031386    1.80384099878273   -1.31037599813330
O           0.92760749233586    0.81496374624964    1.77296454762174
H           1.35893846389083    1.02724810811953    2.60194969577070
O          -2.62494694486184    0.69598008524098    0.62563973293950
H          -1.97964015693567    0.56748400181731   -0.09063130327225
H          -3.46870561517049    0.41094661548063    0.27232696354703
O           0.01824514931753    2.54874999979195   -0.06233486336002
H           0.41300096940406    3.39902977197430    0.14108947426107
H           0.23468073939168    1.93945414408111    0.67764034566518
O           2.29646132621057   -0.55714500251965   -0.07596580728273
H           2.90825646840499    0.10593565073267   -0.40363830231146
H           1.74786218542385   -0.11083268442175    0.61174046020809
O          -1.04683620744562   -0.67820050995535    2.34516598375202
H           0.13247090882673    0.21741394223050    2.02616211800872
H          -1.75392831755532   -0.17641817061370    1.89379327437422
H          -0.85869745553798   -1.44032409407395    1.74607455388618
N          -0.41028018465922   -2.38676706412415    0.35052951939121
H          -0.63165729381386   -1.67166936856918   -0.34028879220390
H          -0.89676490908480   -3.23298266631935    0.08352711781523
H           0.58339496304327   -2.57052779193912    0.28366192512442
