    26
        -50.46247230  Gyration_radius:  2.42028551729 Dipole_moment: 7.253
 S           0.85220120783569    1.06815580999415    0.32129730097764
O          -0.18512510073425    1.34747473611844   -0.66654078582828
O           0.43666642981686    1.35367004393313    1.67162087422117
O           1.16386721876435   -0.47571171446119    0.20737261256124
O           2.12882302738850    1.67335570500904   -0.05641910346041
H           2.44959724614739    0.90596432269961   -1.21086926962569
H           0.34047476993153   -1.00054621677925    0.00065749903557
O          -0.87940158396243   -1.89866953195855   -0.51741286104875
H          -0.76406795881645   -2.79566766116879   -0.19822998624740
O          -2.28198689551121    1.72534111880942    0.94023629870322
H          -1.73773589718114    1.94681806562884    1.70205721455928
H          -1.64362650192662    1.68747411322343    0.20473165441462
O           0.09883522474494   -0.31976122272699   -2.62525749146542
H          -0.28480896124621   -1.09815504330237   -2.19601179722097
H          -0.17286456786168    0.42079920115243   -2.03125963402696
O          -0.50456663352957   -0.77504713233727    2.94038839901183
H          -0.08757761493740   -0.00966911820888    2.48896107130315
H          -0.54809526248470   -0.54143177270096    3.86882083527220
O          -2.55455822541197   -0.94063220383928    1.16695854789536
H          -1.94826839790726   -1.00760401569043    1.92950194803305
H          -2.66244344560831    0.02503645929466    1.02409094593483
H          -1.62428126561103   -1.51192712622445    0.05386918213275
N           2.59652450237643    0.21571579169245   -2.07216317733141
H           3.09060843845151    0.68037880038807   -2.82793735380741
H           1.60548123188969   -0.08448735706632   -2.37942495416746
H           3.11632902540176   -0.59087405148327   -1.73903796982404
