    26
        -50.45462869  Gyration_radius:  2.52314892255 Dipole_moment: 3.144
 S           2.34074037169689   -0.71126473275083    0.76091205981834
O           1.48987964029392   -1.89861458608873    0.67174767452737
O           2.27315455722355    0.09519077921224   -0.43827914096942
O           2.08282294042725    0.02850440515944    1.98116204473804
O           3.82382449221397   -1.24597006613242    0.86214660437411
H           3.79143303614202   -1.70155515289831    1.69601774744360
H           0.52721891171043    0.31631339543979    2.11124604839070
O          -0.43500835613349    0.56516097203691    2.13563180227486
H          -0.63065543435186    0.76482223647082    3.05241707620935
O          -0.46437339663924   -1.96734583124931   -0.87935111093027
H           0.35141810628911   -2.03253892662512   -0.24336962787129
H          -0.19104655982643   -1.25306991913400   -1.56984358896778
O           0.38046850693064   -0.04139567235417   -2.30610111677894
H           0.01510670564398    0.74177558639023   -1.86096565344576
H           1.28663041575486   -0.08345088217401   -1.94548796350626
O           0.17077000697361    1.83155506130678   -0.26606475686581
H           1.06838172268439    1.45723436108402   -0.28136327507995
H          -0.15750200104023    1.62089742548376    0.62041069482169
O          -2.14099213535870   -0.74124927848677    0.48576858761723
H          -1.58190476008857   -0.33096038449081    1.17552537949484
H          -2.41427828383806    0.00348614421884   -0.11835429542706
H          -1.24307969282522   -1.51928166037306   -0.28504976555629
N          -2.59101871436014    1.30396646784996   -1.18337270932246
H          -2.59212774714274    1.05293464087647   -2.16416090181870
H          -1.75951258083835    1.85937353644665   -1.00178219172535
H          -3.40034973154261    1.88548207078264   -1.00943962144557
