    26
        -50.44410010  Gyration_radius:  2.49529188672 Dipole_moment: 7.233
 S          -0.23924931494131    2.45686887528802   -0.02287937852378
O           0.16701232692016    1.38690844884969   -0.90031487750521
O          -0.65652981825292    3.66673509397889   -0.62352782385382
O          -1.33998225111387    1.89062436859708    0.92672969976820
O           0.90542236509147    2.73897223346189    0.98018393316490
H           1.11951516639548    1.86192123198194    1.38725214555745
H          -1.74926261312984    1.06442484769958    0.54039878716269
O          -0.26075177513560   -1.61406284914921    1.26938808030761
H          -0.30505435412595   -2.40910050769894    1.80263159286383
O           1.30613267555732    0.39505086533158    2.07530156414669
H           1.14207344230502    0.50279208518166    3.01395388924203
H           0.70324180203516   -0.32259948302561    1.76070432898201
O           2.47196856210436   -0.01966431002439   -0.56333295859792
H           2.59207917866002    0.12462225414770    0.37960655733621
H           1.71673849798207    0.53875341637406   -0.81950895985367
O          -2.37589954890869   -0.36822668974176    0.21596793413462
H          -3.10742485828156   -0.50745468431030    0.82117953217445
H          -1.61842123960418   -0.90250938633601    0.55079985255525
O           0.96935753861041   -2.23865596555447   -0.84117403321742
H           1.68872864707154   -1.57159719767506   -0.83668428209461
H           0.24631737419499   -1.89334310152452    0.40634559638910
H           0.33569979748234   -1.90700462745645   -1.52804132086356
N          -0.77360743101593   -0.93141987267546   -2.40651925014452
H          -0.73772385459171   -0.87844188012807   -3.41653416563632
H          -0.45643579895156   -0.03658371558782   -2.03916915181504
H          -1.74394451635578   -1.02700943000777   -2.13275731167327
