    26
        -50.44543105  Gyration_radius:  2.54022481942 Dipole_moment: 4.698
 S          -1.10860311790864   -1.77843656275153   -1.21530958570972
O          -1.19765718870492   -0.37397112567409   -0.87898164142597
O          -2.04679692981053   -2.26571227372133   -2.15360975784226
O           0.32586981769794   -2.06501515127781   -1.72209477203858
O          -1.13922080111241   -2.57904961414807    0.11374205394818
H          -1.50377064539251   -2.00164340473569    0.85536042819104
H           0.91206773936780   -1.82227830534458   -0.95346264614482
O           0.54131099606399    0.25349628767708    2.13590025668759
H           1.13519128586332    0.77751636218080    2.67514582440995
O          -1.90581080157785   -0.98295751115275    1.97143532826830
H          -1.04842088296816   -0.65504380319324    2.29409546674511
H          -2.31988229203972   -0.23062429243909    1.53607655256827
O           0.80194062109431    3.23228318958779   -0.47675980673700
H           1.10222517139730    2.42484300841689   -0.96943414008463
H           0.52269700830378    3.86691311419439   -1.13777167336710
O           1.65045543131959   -1.47333427868234    0.42477264581806
H           1.24318148765056   -0.79387701487398    1.01429262162213
H           1.62245353659585   -2.29807273251722    0.91508118224045
O          -1.05527006276088    1.76264720027232    0.77833642438774
H          -1.23127993393973    1.12000357569213    0.07192960513681
H          -0.03018492261116    0.91018198484820    1.62858799365450
H          -0.45419939442123    2.43099311923273    0.38060167937729
N           1.30139730249971    0.90272029336695   -1.73288458879402
H           0.39590326131908    0.46413420946993   -1.57591204061211
H           1.99046913716070    0.33416724172127   -1.25472067460654
H           1.49593416690989    0.84011648385683   -2.72441674569059
