    26
        -50.44816423  Gyration_radius:  2.53789997507 Dipole_moment: 5.012
 S           2.15794325164879    0.14872964141863   -0.45640605498632
O           0.91986931288893    0.43658819798377   -1.14273434756341
O           3.06027819538350   -0.73702468026501   -1.09087932255875
O           2.87063816277090    1.48290131003290   -0.14544417220081
O           1.81645444116461   -0.41018063048179    0.95256234591061
H           0.86363020366286   -0.26399812194277    1.25393742484075
H           2.19872028621693    2.16336243560552    0.13740533760709
O          -0.58215780843256   -0.16148860449095    1.82790736495914
H          -0.56532285543042   -0.47540694308544    2.73361019998903
O          -1.13967400725662    1.68993431836622   -0.10622121601861
H          -1.15706947211024    1.16473421913830    0.70963771104801
H          -0.46079684843720    1.24833856919897   -0.66148301169625
O          -3.00410908551765   -0.09850265800957   -1.11992002292944
H          -2.43750693617469    0.66553617787892   -0.90818308019314
H          -3.91077776311919    0.20824622895644   -1.08622214649326
O           1.00797338944166    3.10001027268176    0.69849732730779
H           0.14398520992429    2.78063201278248    0.35279671548988
H           0.93802798366090    3.12553111240200    1.65497125929715
O          -1.66150738380257   -1.94698991940598    0.40005553358339
H          -2.22817800989897   -1.43875612080745   -0.20961197660264
H          -0.89304978084739   -2.25500821691968   -0.14518556010075
H          -1.04682202094910   -0.90845660534303    1.28261888726058
N           0.54583792195736   -2.41611628879150   -1.07082808895162
H           1.40763684622018   -2.50297535047243   -0.54474542912766
H           0.57926826205424   -1.49712771868807   -1.50076690081080
H           0.57670849500340   -3.10251263777568   -1.81536877709134
