    26
        -50.45192517  Gyration_radius:  2.52800978245 Dipole_moment: 9.342
 S          -0.45195359152302   -1.43824262226824   -2.31530804625669
O           0.29679222630161   -2.32739267073991   -1.43376713393174
O          -1.02382546882912   -2.02404925795297   -3.47258161074643
O          -1.43005366548054   -0.67744396626402   -1.47535841933468
O           0.57634958207169   -0.32337702298388   -2.79700653119474
H           0.89853995718337    0.13637613621449   -2.00922065412882
H          -1.23243314482513   -1.07782144111858   -0.10444571911230
O           1.38877103183596    1.33707992854020   -0.69231801283732
H           1.83071713443598    2.00162192007664   -1.22324476301766
O           1.66283768078883   -1.25607909009698    0.45287930357080
H           1.89311484783526   -0.41806222536961    0.03290693212653
H           1.33283186934260   -1.81816304990555   -0.29815859388690
O           1.35524606000224    1.21649206445829    2.08115745934196
H           1.75115230438797    0.35002069481877    2.21362677590135
H           1.49528811350288    1.42399258239925    1.14025622296617
O          -1.29837396862232    1.15917762445527    2.16583247343774
H          -1.67746885134680    1.70298384894772    2.85678846476033
H          -0.31638093721955    1.26134053263046    2.22778441744087
O          -1.13905769435475    1.78765434128942   -0.59797162084736
H           0.41205877977903    1.59998672668078   -0.66854298678805
H          -1.40518793044585    0.96169899254854   -1.06120237215396
H          -1.41850261324137    1.67893825127466    0.32339837150959
N          -0.96021918591047   -1.27583182371855    0.94527883844616
H          -1.32853066178604   -2.17723144193755    1.22672079261244
H          -1.30625113629773   -0.50956298626471    1.54001371021754
H           0.09453926241805   -1.29410606568984    0.94248271189517
