    26
        -50.44148509  Gyration_radius:  2.48808437005 Dipole_moment: 4.423
 S           0.05980170413155   -2.18464448578951   -1.13369534525808
O           1.37880315178464   -1.74568227979763   -0.74872809712081
O          -0.03931532004684   -3.10892592659883   -2.19593838710050
O          -0.64532381688252   -2.71291650765339    0.15226124059341
O          -0.79216978859161   -0.92227180951338   -1.47691796038693
H          -1.23607356283583   -0.59265920668405   -0.64856893707576
H          -0.04016496852983   -2.47290015330738    0.92684520141978
O           0.40321045493344    0.78529966570445    1.85111120673071
H           0.79213395298133    1.33076466778490    2.53604358575137
O          -1.51189205629081    2.55825739321371    0.27303582188297
H          -2.17527023984364    1.86304216105197    0.24799428914984
H          -0.83163615903846    2.25127140395530    0.88211989791726
O           0.99892408393167   -1.86868619593773    1.91273024611895
H           1.71184806688928   -1.89910858584367    1.26023531122791
H           0.80265202968565   -0.91667800445588    2.04277313086015
O          -1.86714927032989   -0.26078694621006    0.80539862673985
H          -1.12123471299214    0.09889413933879    1.32308605619476
H          -2.06565528870194   -1.13432296507100    1.15400377136406
O           1.87342324757212    0.85185615103965   -0.20606997211898
H           1.36015261180839    1.33983417590263   -0.91043514972797
H           1.01823444603703    0.86935538859240    1.02796830999272
H           1.86936324192146   -0.07750862341157   -0.49602238291645
N           0.23264552548334    1.92213029658110   -2.00107791539931
H          -0.20683627914979    1.09327322669513   -2.38474647416127
H           0.49012259801707    2.53164460801583   -2.76562191160718
H          -0.45859365195409    2.40146844238605   -1.42778416309274
