    26
        -50.46788080  Gyration_radius:  2.39869554708 Dipole_moment: 5.649
 S           0.94069779022023   -0.83837037045442    1.29308226593664
O          -0.47193803718507   -0.54131309699804    1.08268315880219
O           1.14602088057100   -2.14060613392537    1.86727457693994
O           1.66819630532355   -0.67421491530405    0.01246874504625
O           1.50912379754649    0.24230080397852    2.26375929834822
H           1.23341000256329    1.11810732336438    1.90140167034898
H           0.69368525019637   -1.29693120863135   -0.96521493243499
O           0.63288754001883    2.56933744417362    1.30040623906829
H           0.57397273863854    3.19047704859158    2.02820020405186
O          -1.10594879645180    0.82761358998155   -2.07050619235483
H          -0.21190667310854    1.17755148191806   -1.78592185507625
H          -1.26455172837665    1.18280496092176   -2.94602544144203
O           1.24602683554643    1.60894135420250   -1.24639186662100
H           1.55077360637703    0.77815606835813   -0.81921256549894
H           1.18416020568763    2.24130863488476   -0.51916542219618
O          -0.91999573379091   -3.18021533345347    0.57672040760019
H          -1.61470173254311   -2.70052117850461    1.03735512758617
H          -0.11050271715058   -2.98005745424776    1.10255760910329
O          -1.71669792315095    1.69606915619392    0.58220779616177
H          -1.78620782845907    1.60415693967920   -0.37720692473044
H          -1.40369453794476    0.81169650015714    0.87553175980900
H          -0.30834163390578    2.33567095751819    1.04913425992839
N          -0.17134132244717   -1.67917371548199   -1.47730519421539
H          -0.62524013918108   -2.30396278859456   -0.74672232952299
H           0.08376508652949   -2.20132334567202   -2.30923222289131
H          -0.75165124553250   -0.84750271262405   -1.70987819176243
