    26
        -50.46053532  Gyration_radius:  2.41031788321 Dipole_moment: 7.488
 S          -0.17877200773290   -0.56795240685907    0.71545842303629
O           0.34204339071689   -0.06869063239785    1.98705906580740
O          -1.61324257275969   -0.66801450244836    0.66046094871846
O           0.28965990846004    0.50832969268122   -0.32785999251316
O           0.49804469507861   -1.81103930225659    0.31759943450869
O          -1.32344953518494   -2.26668501045529   -1.61239839632674
H          -0.58426953577110   -2.25643393664138   -0.97598793588314
H          -2.11314956462788   -2.25102946168855   -1.06355340465815
O           2.95532095226447    0.96945019112002   -0.43132116151855
H           1.99108464709846    0.85735306124210   -0.54948376372016
H           3.11327599143248    1.91413127289115   -0.38724553445406
O          -1.22334552006748    2.34799589097996    1.10005025666241
H          -0.57155167583035    1.81622370551666    0.62593083340443
H          -1.32297443292768    1.91586096399812    1.95113373931584
O          -3.02060789315747    1.16020434310876   -0.71625382956240
H          -2.66987582847046    1.94014185082899   -0.26170414968724
H          -2.76123909180289    0.42238147582712   -0.13437126058574
O          -1.13538105568203    0.28082833627781   -2.31422746140848
H          -1.95888253665814    0.68023263359087   -1.91704152656796
H          -0.29791380509903    0.42947055359844   -1.26674358686290
H          -1.26470306102833   -0.70047472143875   -2.29016789063516
N           2.63444060104242   -0.94289029389226    1.39853463321538
H           2.01746433302176   -1.58540150356266    0.82302460614840
H           3.30324327401510   -1.42538406703336    1.98822703623367
H           3.06615608201879   -0.24217076468526    0.75839540309117
H           1.82862421165391   -0.45643736830226    1.92248553423915
