    26
        -50.46273341  Gyration_radius:  2.39086668713 Dipole_moment: 5.185
 S          -1.06393375509907    0.85954825087870    0.82933452367095
O          -0.17853534274765   -0.05726264258383    1.56561876578725
O          -0.70316727857397    2.24186165284171    1.01176620193287
O          -1.04794667519772    0.49887453449977   -0.60339850627447
O          -2.49244597241501    0.60858224475636    1.34240990544272
H          -2.52425653902667   -0.40697051214108    1.37939521385549
H           0.08581424425679    1.13544864845551   -1.54059852808152
O           0.86715354128677    1.43091345939009   -2.07867325747446
H           0.51157497925246    1.91241638921569   -2.82652614193927
O           1.80569604176031    2.50612993238051    0.24921165375028
H           1.65716898194000    2.35277311165874   -0.70137273330604
H           0.90104158849226    2.59636131520341    0.63133136577726
O           1.99672246347703   -0.95792358964407   -1.27483830784786
H           1.18053669567331   -1.49365972955716   -1.19057882926016
H           1.74582141280096   -0.16779188523132   -1.78297026076159
O          -0.52878203878188   -1.97766836751468   -1.09934429505378
H          -0.77156872448265   -1.03844071802006   -0.88403081734486
H          -0.91131548927359   -2.16026759717189   -1.95972260998562
O           2.21939970133823    0.14731347442709    0.99713389036845
H           1.23123274262033    0.00534661008438    1.33906407074540
H           2.25086008655696   -0.37207670680767    0.09932274347189
H           2.20997964686035    1.16688158947529    0.74222656892821
N          -2.22493023648942   -1.96749538537891    1.41480824881910
H          -1.52066398176688   -1.96659783105821    2.14270564036791
H          -1.75887520600214   -2.24594679065644    0.55595060770399
H          -2.93658088645836   -2.65034943749563    1.64177487670064
