    26
        -50.46815399  Gyration_radius:  2.47647975556 Dipole_moment: 5.906
 S          -0.97630185227693   -0.57446214881473    0.00549702830453
O          -0.53536255808335   -0.86839515317093    1.37571384290890
O          -0.04041009088003   -1.13733149768865   -0.95893215081801
O          -2.34393100556370   -1.26834715247002   -0.16790829492013
O          -1.15139738730810    0.86019598739491   -0.17757456644129
O           2.03988547554679   -1.36577597333857    1.88435304232121
H           2.33063429013553   -2.27562534785609    1.80917727114331
H           1.08544662001481   -1.36442644444751    1.65850014488326
O          -0.97509442683952   -0.74795351848020   -3.40506090614750
H          -0.52893351823154   -0.89088658768169   -2.54265287124494
H          -0.98273099246230   -1.59899590179536   -3.84605787806039
O           1.01610699046827    2.28222896367874    0.29247658346242
H           0.14283698242482    1.95908538237991   -0.02295425102355
H           0.92091162266519    1.73880047722515    1.63633886013849
O          -3.01543457367442    0.32690689099195   -2.04641895632322
H          -2.41430895723076    0.00981383727565   -2.75352290671325
H          -2.76858707008982   -0.74345817830282   -0.91121990745227
H          -2.49665178385110    0.97609190893743   -1.54825121341582
O           2.28401446497011    0.10990079019395   -0.47119164672089
H           2.50637875466453   -0.37133391044112    0.34060244097162
H           1.50112954542306   -0.35574868564038   -0.82286791784524
H           1.65597805160444    1.64785929191616   -0.11911764217992
N           0.73796931831022    1.09376631789475    2.52836581327908
H           0.06753535582101    0.35337323345646    2.16226103287181
H           0.34663157627954    1.60222090489783    3.31333153444014
H           1.59368516816035    0.60249652388547    2.78711351458257
