    26
        -50.46273341  Gyration_radius:  2.39085404984 Dipole_moment: 5.188
 S           0.63139967687281   -1.38445428538910   -0.49205499988833
O           1.14744995681063   -0.78029362327082    0.74699008715555
O          -0.19257569325924   -2.53904539574211   -0.24250340134045
O          -0.11662617159450   -0.36190990799598   -1.25218896796610
O           1.85363792616588   -1.77425005449686   -1.34109522488164
H           2.44843497570260   -0.95613818791959   -1.23655902544611
H          -1.67134266090045   -0.15021025110205   -0.92499790332070
O          -2.59425783863461    0.06047597618371   -0.62313731051602
H          -3.15897090528774   -0.05021447891162   -1.38884574633771
O          -2.15168967719544   -1.77744865075296    1.34707499563644
H          -1.47617845867447   -2.25997765697119    0.81472081820815
H          -2.61147162540150   -1.20842507836693    0.70362927994475
O           0.63840012670092    2.06904762035352   -0.84147693804939
H           0.37754114961392    2.56178255414683   -1.62192491842279
H           0.39371975728879    1.12244229609574   -1.01932130583457
O          -1.35929830827994    1.91302555624103    1.01188852763646
H          -0.58346226361932    2.12108086348643    0.45053563733566
H          -1.99037387978454    1.45128515071541    0.43395196741461
O          -0.59414858190723   -0.09300006275353    2.36240559730057
H          -0.91396628069696    0.79704130811095    1.93547720966793
H          -1.31190651353816   -0.81475927110147    2.10052668827717
H           0.22540382292734   -0.38258089162162    1.76384852790079
N           3.16592750571547    0.39413493339124   -0.80448043002039
H           2.51035148401756    1.16699350199810   -0.87772138487192
H           4.05825252763372    0.67933818578935   -1.18740731926327
H           3.27574992932513    0.19605983988604    0.18266554967462
