    26
        -50.47128556  Gyration_radius:  2.43356343921 Dipole_moment: 2.294
 S          -1.48536111989734    1.11169654296349   -0.11843241899918
O          -1.17910248088609    1.20478832842555    1.29161492940573
O          -0.42444798652197    1.68935435622819   -0.94490673661044
O          -1.83315210171207   -0.22367262051146   -0.55991863435875
O          -2.76961672987429    2.00058055397633   -0.35331246039809
H          -2.57326689450732    2.75653987395434    0.18874747938524
H          -1.69242350049010   -1.64862902183633    0.36625013451446
O          -1.42448542346191   -2.48344051109671    0.80357946303526
H          -2.15726952383290   -2.74604604078528    1.36191145757585
O          -0.35053506216896   -2.08807470442642   -1.85486495272549
H          -0.37768524011888   -2.72884160497097   -1.13536212619810
H          -1.04189724023474   -1.44060647660323   -1.62508636538395
O           2.62641417910485    0.04057780771418    0.60858664382654
H           2.44373942372254    0.98770788701182    0.78766134450170
H           2.01158001626261   -0.11228134263310   -0.76140238411282
O           1.36715618902242    2.40017026995204    0.94080031317961
H           0.74602839163563    2.28238273448596    0.19964489399709
H           0.83832858917530    2.22801122783619    1.72564976669093
O           0.48911510519049   -0.83033311515616    1.91241162051699
H          -0.11532366687338   -0.07336826289501    1.80639110172651
H          -0.02190146094191   -1.60406435873961    1.62818590463782
H           1.98153501060377   -0.42807091476870    1.18706824075338
N           1.40615846968361   -0.08881046594220   -1.66735856470541
H           1.97042971155435    0.12289094662796   -2.48280746489307
H           0.68699568166211    0.66013496682264   -1.51010991027660
H           0.87898767391077   -0.98859605562823   -1.79494128509525
