    26
        -50.46062410  Gyration_radius:  2.50486503043 Dipole_moment: 6.283
 S           1.96740213896987    0.26827622047666    0.31237137780748
O           2.21112151994966    0.75532380710285   -1.01667865840802
O           0.97672661173901    1.01268848138181    1.07193039516255
O           1.68365863819153   -1.17242480119031    0.35862357832721
O           3.33564207925775    0.44520957170768    1.10736893920107
H           3.96426985796412    0.56782787698053    0.40377228690397
H           0.44064615147633   -1.63981147713597   -0.61227755181107
O          -0.37006157701777   -1.88117573584374   -1.11821755508061
H          -0.17509965797918   -2.70119608644375   -1.57452671415224
O           0.05232757949096    0.44114040364326   -2.62690205460826
H          -0.25765849701533   -0.39785458479282   -2.25509617393916
H           0.87835711471215    0.64455256268156   -2.15294784677854
O          -1.73869944605201    1.40471394689735    0.65315163479457
H          -1.89989323007272    1.73986091535299   -0.25463006977872
H          -0.77896134185445    1.45421639167845    0.77850409014477
O          -1.78999106777160    2.23192967828931   -1.90576309062231
H          -1.15248221362646    1.57348438518271   -2.26844014699490
H          -1.41241647044502    3.09329494804936   -2.08765506065667
O          -2.10632997245100   -1.16377264402975    0.90331511707978
H          -0.96604637926454   -1.17101325384659    1.83305306241143
H          -2.16430733255418   -0.17389083822321    0.78452623970095
H          -1.72225238789728   -1.49320498674484    0.07276628251684
N           0.00914790082831   -1.02470131680755    2.33864815282235
H           0.26029189983599   -0.02110967438174    2.18770611347833
H           0.73560541670918   -1.48702235714183    1.75509580055394
H           0.01900268481105   -1.30534143281912    3.31230187195373
