    26
        -50.46983920  Gyration_radius:  2.51174623848 Dipole_moment: 2.840
 S          -0.13663008988611   -0.70259777919148   -2.06344741106185
O          -1.54775385855187   -0.40774416603415   -2.17178896715424
O           0.68990694077509    0.49254285696599   -2.19848115031270
O           0.20291645223974   -1.46322942439384   -0.87157491151261
O           0.22866336080051   -1.64247986178547   -3.28477651948383
H          -0.20106794296854   -1.21154661437829   -4.01654334764330
H           1.80728292231716   -0.95287178882574   -0.43254773735573
O           2.59509479993934   -0.38751753729817   -0.33571284304729
H           2.59312268992614    0.14651182484052   -1.13610647284288
O          -1.33671136762201   -1.63758616673568    1.22460961869530
H          -1.60087209831131   -2.55406444599976    1.31946457655650
H          -0.74553144385317   -1.60711833478094    0.43243725034407
O           0.13025228843586   -0.36191031199671    3.13585101500025
H          -0.36970622373278   -0.87946229095353    2.47558574349536
H          -0.51675536828994    0.04406885639493    3.71414191930354
O          -2.33860601358990    0.67936222101113    0.10819737511083
H          -2.21161774970472   -0.08527389224892    0.69095458495443
H          -2.24669861835529    0.31006534516623   -0.79645249902487
O           1.71645865522159    1.22324835139485    1.61919820984926
H           0.66670050223998    1.73457768700714    0.64723758156498
H           1.26068540828290    0.64679472778972    2.26492484724144
H           2.21605400065788    0.61518800808479    1.02881046745481
N          -0.04294003048931    1.97184745822749   -0.13784010593723
H          -0.10081491411743    2.97365813100839   -0.28456100503428
H          -0.99726550249890    1.56680624277667    0.08169551887613
H           0.28583321115565    1.48873092396013   -1.01327572802657
