    26
        -50.44966753  Gyration_radius:  2.50277510466 Dipole_moment: 2.525
 S           0.48248229249742    0.51525709577493   -1.37962971979107
O           0.70195692136593    0.95650617781563   -0.02124164098803
O           1.63327130032196    0.40208909666452   -2.20352614280724
O          -0.19750592814420   -0.88361928930893   -1.33917233538743
O          -0.58774284081750    1.40934351986516   -2.01767330507125
H          -0.84701198640332    2.13446563602649   -1.33044589548983
H          -0.95137129138584   -0.87066379330776   -0.67993707775200
O          -1.99526716721509   -0.90521816906821    0.52455707777369
H          -2.39562322491166   -1.76956760575715    0.64052240181619
O          -1.10545088969763    2.97071563289849   -0.12154493166748
H          -0.37644071764601    2.59844212993078    0.39303932875683
H          -1.93316269529653    2.58738677335407    0.25306120482242
O          -3.23085687016547    1.54469222163391    0.63137573718269
H          -2.85600042849776    0.64588198185619    0.65120876915894
H          -3.92094441886768    1.54601937565638   -0.03405150263102
O           1.30530606604679   -2.60889702294556    0.51574756466718
H           2.12858153925795   -2.08321404763450    0.35800964377183
H           0.82546928841000   -2.55973052339027   -0.31577317344717
O           0.07653885840438   -0.76150193867920    1.97860472962033
H           0.45719709374121   -0.01724442670633    1.48284712216776
H          -1.25162909523060   -0.84157421569460    1.22858289075493
H           0.55699277258196   -1.55323174749862    1.63392986176310
N           3.23174323373816   -0.83765373406192   -0.11907130607850
H           2.79462774364747   -0.43546684824706   -0.94532385272848
H           4.18495564016682   -1.08116810796540   -0.36022323231312
H           3.26988482417031   -0.10204815122901    0.57612776389334
