    26
        -50.44283669  Gyration_radius:  2.54449643471 Dipole_moment: 6.559
 S           0.06821239274861   -2.40906232071102    0.39863378628234
O          -1.01835805479636   -1.47292824737684    0.43288539249365
O          -0.23168544218071   -3.78531581622667    0.26524016105411
O           1.04868104436504   -1.94645022564802   -0.74791434127017
O           0.97286735721661   -2.18657662219015    1.63351617931028
H           1.03492657948119   -1.20567381203614    1.80066088117670
H           0.50358149969038   -1.77856419382397   -1.57614068521677
O          -0.30838305196089    1.31674063285425   -2.04882525160355
H          -0.60558956194770    2.04609677756552   -2.59389094471646
O           1.35262933121909    0.37205478040786    1.97830002307012
H           1.55322818443657    0.61283076010816    1.02960027564692
H           2.18508242937972    0.43448795979279    2.45153297958185
O           1.89436258338381    0.69013814294277   -0.55101814808350
H           1.16505188184836    1.06983320167201   -1.07441768670979
H           1.86162301142147   -0.26278851036624   -0.72387745003907
O          -0.19425340993337   -1.22076957641309   -2.86912727914657
H          -0.30841065499905   -0.26801340614175   -2.63722608041427
H           0.38457169764720   -1.25693625681397   -3.63360366479176
O          -2.07650438371271    0.91670768656672   -0.25351397750157
H          -1.84019109996639    1.39046886346409    0.57809292418748
H          -1.02662305479531    1.19075443563007   -1.33712080520482
H          -1.89378652805110   -0.01681378823299   -0.05238136296024
N          -1.23748606756470    1.92146805753147    2.13338458889969
H          -1.00757306026475    2.88481999107681    2.34154188747234
H          -0.38979500705995    1.36821954771353    2.21726304135459
H          -1.88617860564755    1.59527193876872    2.83840556707490
