    26
        -50.44450982  Gyration_radius:  2.48701742342 Dipole_moment: 6.920
 S           1.95294952006052    1.07974498271023   -0.98063416477548
O           0.70431458656551    0.59475050340094   -1.51166953579964
O           2.72841382939440    1.92275026075402   -1.80906553024384
O           1.64112482857802    1.76788023151140    0.38962164890858
O           2.80586157010542   -0.12675681758988   -0.52480128283886
H           2.28113733431971   -0.58056558923966    0.18945700088630
H           0.67152478308328    1.97639562941347    0.45929362127067
O          -1.05810697355227   -0.25752297997899    1.82853630465068
H          -1.53046755866494   -0.55000284526881    2.60920118576562
O          -1.99144569234903    1.04422246213457   -1.50844481796531
H          -1.06532528443550    0.87076186499299   -1.74055804536099
H          -1.94609577485541    1.73086378372071   -0.83529944906123
O           1.45440669459330   -1.12861496346577    1.45352325622149
H           0.52256608616150   -0.81895443626059    1.54048827167939
H           1.92633659998855   -0.78987826137056    2.21704386264622
O          -0.87920801856751    2.21078319146872    0.88342361628608
H          -1.01918800352101    1.31382744162770    1.27540428737488
H          -0.91384403707653    2.84440270479580    1.60255054117946
O          -2.22849073411229   -1.27257043925306   -0.15870424065079
H          -1.48589634480769   -1.77897825368332   -0.57299870902358
H          -1.55585962508386   -0.69436754622828    1.02758026398726
H          -2.33862609283446   -0.48374538441387   -0.73427424828792
N           0.07233329145512   -2.22173652043909   -1.18006993415383
H           0.36245617284634   -1.28538133477535   -1.45614333456728
H           0.16421057941457   -2.82390595134499   -1.98788348300922
H           0.72491828331196   -2.54340175320881   -0.47557708510894
