    26
        -50.44450981  Gyration_radius:  2.48702447489 Dipole_moment: 6.920
 S           1.30991098995785   -1.89432151370942   -0.79829267222425
O           1.26525761859964   -0.49414680522523   -1.13567054979485
O           2.41398597101281   -2.64167639962840   -1.26816371740443
O           1.17583774423416   -2.00385816036850    0.75682406117571
O          -0.00461733531183   -2.56354406047909   -1.26201713152464
H          -0.73576969524017   -2.11146706855507   -0.75954275496244
H           1.37591046359294   -1.12858161327031    1.18380862504655
O          -1.12836151473676    0.70370600884461    1.66162054314079
H          -1.76251105070207    1.06021721787773    2.28520735089562
O          -1.82144001532583   -1.45993198436032    0.22967298487638
H          -1.97512759614227   -2.13174488387267    0.89710743054881
H          -1.54778206183268   -0.64446834017476    0.71124408728609
O           1.81397237208536    2.00303364691580   -0.17019085963032
H           2.02900398606384    1.68938440077152    0.71414150063051
H           1.73309158508833    1.19476233597212   -0.70106081489006
O           1.44505245431708    0.22891305322700    2.07376776776466
H           0.48869198564001    0.46376183524922    1.98434588674447
H           1.59589147284115   -0.00657903364056    2.99115932801659
O          -0.84474969484403    2.42324375268609   -0.15826405329464
H          -1.03575154763782    1.42726570016879    0.92133998046729
H           0.13476728716899    2.48635855210077   -0.20534472742221
H          -1.09680502892487    1.89348713249800   -0.95536017867903
N          -1.24403711855724    0.60656909449242   -2.10201031511247
H          -1.93371081116872   -0.09561988123988   -1.86340869766970
H          -0.32612089120400    0.19676175015523   -1.93880675740445
H          -1.32458954893969    0.79847528356581   -3.09210630657443
