    26
        -50.45603357  Gyration_radius:  2.53119931633 Dipole_moment: 7.433
 S           0.85555147509028   -0.73800299898329    1.66328152669413
O           0.75620930347217    0.64293870960699    1.19394807302787
O           1.49559585779042   -0.86889028083196    2.93979632700275
O          -0.63985241997785   -1.25870792293865    1.79047256965321
O           1.42433490508025   -1.57495255493463    0.59869401073506
H           1.58500471504369   -0.65433276721912   -0.60663987066421
H          -0.98626243633501   -0.72931734116641    2.53450330750953
O          -0.61914524124107    0.51733268269995    3.74902870444584
H           0.25115404723707    0.08166978892120    3.80489370161581
O           0.00157395072178    2.32377213594553   -2.52438788930687
H          -0.24080108771166    3.04045781847230   -3.11204614865535
H          -0.52890976225304    1.55992549803421   -2.78130625062449
O          -0.98681158086428   -0.37596445306215   -2.08993016625396
H          -1.02384546552333   -1.29486647006110   -1.73502253033266
H          -1.35821204330545    0.18483853743420   -1.36350212588632
O          -0.72205212328755   -2.61222415741968   -0.67933490697752
H           0.11143670812273   -2.39663941129961   -0.21864172579925
H          -1.38111236339825   -2.62638683811851    0.01954792037761
O          -1.41806502815404    1.32593606043696   -0.11213210658222
H          -0.66655656706791    1.05247896429139    0.46166552168424
H          -1.12944374591122    2.14226063960986   -0.53200587346716
H          -0.46513566065747    1.33135929834615    3.26206665192295
N           1.48433694701503    0.06324672462948   -1.39752279430641
H           1.47099388120653    0.98339778373478   -0.95534568048814
H           0.50287270146311   -0.11129409982166   -1.82549721969701
H           2.22714103346015   -0.00803536630595   -2.08458303562109
