    26
        -50.46152693  Gyration_radius:  2.59921785065 Dipole_moment: 7.378
 S           0.27858529392781   -0.52194261125891   -0.42824175182230
O           0.79387400071854    0.61672417736170    0.50538416782615
O          -1.03341677614564   -0.92642252420090    0.07850436694065
O           0.14308477028214    0.16284872457737   -1.71918242768060
O           1.22989986416770   -1.60414781323445   -0.44416437533111
O           3.39654012648939   -1.63680571895833    1.09253850658386
H           2.64844600262854   -1.71414125465383    0.46318867281691
H           4.09176692945716   -1.17524208641373    0.62236607668856
O          -2.53876849796335    1.07618358501623    0.69146977772046
H          -3.42411164359641    0.82517371879426    0.42082438679166
H          -1.98045071376328    0.26126203758502    0.56732454566272
O          -1.66106987936019    1.43467316110039   -3.39661105745800
H          -1.79259066442415    1.13751461680129   -4.29751139000755
H          -1.04903373343942    0.80089811874457   -2.98639790817767
O          -0.07285941598848   -2.60037077427556    1.91337921702769
H          -0.57437347114634   -2.06883599123412    1.26620830752348
H           0.56168242279543   -3.09439194553296    1.38659662277284
O           1.47177209637703   -0.54849016664419    2.64151234677278
H           1.05522772609182    0.20610247637171    1.41106552990556
H           0.85388484809022   -1.31492904941521    2.62182045462282
H           2.32590193748849   -0.91443820200024    2.33795747349772
N          -0.94458726163666    2.36300986760627   -0.94470739448076
H          -0.35880533635389    1.49605665669503   -1.21104584196202
H          -0.35831844260390    3.08367550671195   -0.53714291948735
H          -1.40260460866265    2.65881175926298   -1.81105001890895
H          -1.65967556348431    1.99722374118773   -0.24408535778779
