    26
        -50.45230307  Gyration_radius:  2.44417739154 Dipole_moment: 3.494
 S          -0.41264217980482   -1.78971624337594    0.76111382186443
O          -0.21351204452222   -1.56036570327080   -0.65002169993590
O           0.22993624016590   -2.94281133362344    1.28753710586035
O           0.05386602563266   -0.52954638524689    1.54093202611291
O          -1.92144797209649   -1.80017035213028    1.05601660201088
H          -2.29909064734784   -0.93160733107609    0.71410666359858
H           1.08088230515019   -0.67629780646487    1.66422972405058
O          -2.82014228388802    0.42246223555424    0.08370961291988
H          -3.73437397513698    0.30779005565732   -0.18278922047333
O          -0.79974475202615    2.07410546767147    1.18287536343235
H          -1.68783953008958    1.79965296097281    0.91943603187864
H          -0.40211599409533    1.27765196915076    1.56240793703730
O           2.46352269886965   -1.12594393069953    1.54730561463514
H           2.30680780661743   -2.07642261713085    1.51632299834729
H           2.61882264299223   -0.81329217274100    0.59752726170821
O           0.63339115076242    2.21842175950151   -1.06439097801080
H           0.17301845564259    2.23271609131224   -0.19048767556594
H           0.71509487287282    3.13320236799223   -1.33772029826090
O          -1.28182737251521    0.49070890586336   -1.97510576009181
H          -2.28065071214847    0.50260607278299   -0.77071508604359
H          -0.59032722309632    1.16177524076213   -1.81145004322347
H          -0.87016273532380   -0.35309887949402   -1.71092410954210
N           2.37210130573059   -0.32051874285778   -0.94068405371156
H           3.04746727939673   -0.46201596435387   -1.68075309725692
H           2.06769541865989    0.64807543926065   -0.97627852026660
H           1.55127122963015   -0.88736111402745   -1.14220024109330
