    26
        -50.45006244  Gyration_radius:  2.45133091843 Dipole_moment: 6.409
 S           1.05210311871597    1.88836246736908   -0.22803565282212
O           0.09733952412772    1.84613512645151   -1.31163886144996
O           1.81236583321436    3.06948108212474   -0.07279230448136
O           0.30537807729859    1.59527949837629    1.09425043412245
O           1.97729145742985    0.64054481735854   -0.37395384823741
H           1.63241386016064    0.11988787304827   -1.17641118046351
H           0.04831695541694    0.60462377316367    1.15404849048734
O          -1.29083477041568   -1.52534304971115   -1.13346290919095
H          -1.91302349537104   -2.20861884712846   -1.38485768235518
O          -2.47083765557718    1.02858457245224    1.64432143591804
H          -2.01002241713568    0.21323798002579    1.87541662556231
H          -1.84214183763279    1.73788451307261    1.80826019752517
O           0.87599913268669   -0.48476443942910   -2.36477538361022
H           0.14814282673668   -1.02784799883887   -1.99793989802693
H           0.47036709116612    0.36702751465038   -2.58268994640384
O          -0.32168223461597   -0.85666985879688    1.29932821027045
H           0.57029043707758   -1.27519521388613    1.43002350444923
H          -0.65889018877700   -1.20292643703245    0.44837745994977
O          -2.37918841895528    0.80356809427507   -1.07543802971269
H          -1.58576617373378    1.34511919075527   -1.24046772587083
H          -1.79507414644716   -0.65002780219545   -1.17243476105376
H          -2.61173691387062    0.95106466006649   -0.13692297409330
N           2.20326789592655   -1.72905080310782    1.40606325040804
H           2.67016890455964   -1.73080414658567    2.30394063334129
H           2.55586549144972   -0.94161735799011    0.86969559534245
H           2.45988765657204   -2.57793520851265    0.91809535039525
