    26
        -50.45006248  Gyration_radius:  2.45119668795 Dipole_moment: 6.412
 S          -1.48667903691152   -0.90568813431072   -1.30041113195855
O          -1.90805734558894    0.46588379498115   -1.13091034503193
O          -2.22767097129914   -1.71080983348840   -2.19472620553623
O          -0.00185818682287   -0.91189416153105   -1.73299489705006
O          -1.42502672247512   -1.55215599482980    0.11811503574418
H          -1.66917251427959   -0.81870039835336    0.77864485075081
H           0.60652119745061   -0.66135038895262   -0.94644191555575
O           0.35946520464034    1.77534353543864    1.41063772562444
H           0.74156436914445    2.47882162001764    1.93628893305892
O          -2.00107790651035    0.46918405175386    1.54112497591463
H          -2.38645164957844    0.87646225951363    0.75167764086296
H          -1.15670744345990    0.94355664177627    1.68691747084480
O           1.86681046372968    1.23588178646641   -2.20346062070903
H           1.40235694040213    0.56794237001344   -2.71674446290205
H           2.22524942614900    0.77294693947144   -1.43685951493160
O           1.54358756034858   -0.32743412834211    0.19464176692937
H           1.17932802103526    0.41367675722582    0.71998713184125
H           1.45655063607476   -1.13574784828155    0.76642673532832
O          -0.19443535184533    2.54329414558649   -0.97981984451574
H           0.14420625900988    2.17652542627762    0.50793505171860
H           0.57064863634890    2.26112365919676   -1.51993335424850
H          -0.90816376621908    1.91033058500521   -1.17978627505210
N           0.94931149057414   -2.50195212374111    1.63227048446993
H           0.02063979777267   -2.58205287637566    1.22824617408552
H           0.84640510224859   -2.42624811767923    2.63640052996835
H           1.45265581004376   -3.35693956684014    1.43277405036540
