    26
        -50.45098279  Gyration_radius:  2.42982545074 Dipole_moment: 1.547
 S           0.62986266769188   -1.12666597179711   -1.16369816497156
O          -0.53291566224389   -1.88570458375451   -1.52543719186735
O           1.83786051870642   -1.34716606759636   -1.87411600175870
O           0.28557137541092    0.38161688473242   -1.26399471413989
O           0.91962164136990   -1.35172439387803    0.34594801802926
H           0.06244799813398   -1.36148131954833    0.87128485446979
H          -0.68222480278916    0.58754977866333   -1.08811983323843
O          -1.20331363113967   -1.18607704491177    1.79223374519898
H          -1.02732386094200   -1.48833803265768    2.68502386732363
O          -2.17799304814828    0.97559255980109   -0.82369634851885
H          -2.59869498677075    1.30158182390108   -1.62107775571986
H          -2.58805847394217    0.07615386256233   -0.63250543665952
O          -2.90723070431890   -1.46293875378335   -0.38235375705356
H          -2.62315054583809   -1.58977009969761    0.53330578358388
H          -2.17415598232347   -1.81838476501372   -0.92132539782518
O           1.69833522334545    1.18871927544689    1.44878512362472
H           2.15235957479290    1.33233488513527    0.58245146011901
H           1.82627945644537    0.25270710039417    1.62310529106349
O          -0.94947116180536    1.36057356521617    1.71321892663004
H          -1.34265317183679    1.62135849719969    0.87259739785199
H          -1.18912344184522   -0.17138929964130    1.82894976228618
H           0.02974518326964    1.44589012594164    1.61607323438265
N           3.03725468004513    1.11895317381138   -0.90070672351350
H           2.72920339029460    0.21468249105136   -1.25114429646114
H           4.05023980762350    1.11956611694156   -0.89006900295932
H           2.73752795691945    1.81236020157184   -1.57473282986795
