    26
        -50.44593649  Gyration_radius:  2.50576028479 Dipole_moment: 4.478
 S           0.83133100988625    1.68243550168373    1.25509288029602
O          -0.47776946827342    1.87934183161314    0.68569001108893
O           0.94767740659030    1.84898590428240    2.66034801924770
O           1.26769451919950    0.20728004820336    0.88398679843447
O           1.85393187240671    2.49141834711997    0.47311834914086
H           1.54600863861827    2.40233589992611   -0.54502953222401
H           0.65590889527898   -0.38454388755486    1.42577309350181
O          -0.42995090398652   -1.16740750000312    2.20395908082825
H          -0.62987643328261   -0.59610173795721    2.94853042754638
O          -1.69029133837466    0.36929406907627   -1.15789194609262
H          -1.38160829694125    1.00307833126764   -0.48392933111503
H          -0.88521219082437   -0.07538180166004   -1.48429498561641
O           0.74802270421682   -0.82827214981115   -1.59040429201991
H           0.51054854102731   -1.73656453643784   -1.34941697547511
H           1.12728554619278   -0.45999688977562   -0.77528527396531
O           0.11473128392067   -3.04407010563717    0.01373328886093
H           0.67698706311628   -3.81193613332895    0.12550431457413
H           0.08477090146192   -2.59254828434831    0.86676089420697
O          -2.42252824019959   -1.47792638932713    0.58051970109703
H          -1.27141039951995   -1.22914790837295    1.64969480659550
H          -2.31184775556863   -0.75318333761151   -0.08780294643785
H          -2.19495917050685   -2.29002781230566    0.11923660570823
N           0.96094296990239    2.18304810427834   -1.88282228417400
H           1.07021300016117    1.21817078999278   -2.17822373719813
H           1.32725959811521    2.79411751897234   -2.60082030554118
H          -0.02785976259531    2.36760212769365   -1.75602663128812
