    26
        -50.44793421  Gyration_radius:  2.52323482559 Dipole_moment: 1.657
 S           1.72761219511817    0.82757103737504    1.10930304622152
O           0.88295457654247    1.75052355987883    0.36236529826012
O           1.11763206993836    0.34537137744379    2.32364983432234
O           2.21524913081378   -0.25210492626542    0.25501953649526
O           3.00854877559649    1.65920161237264    1.54860345484018
H           3.34177072705989    2.03328552083959    0.73829140882698
H           0.99733241995940   -1.23973886056947    0.49614188506978
O           0.22367614154328   -1.82798160303607    0.71312877376298
H           0.46302728925067   -2.23563302032503    1.54924117306685
O          -2.74973825705396   -0.32114841129937   -1.27307459553158
H          -1.98297211056765   -0.84254817134145   -1.67639615065125
H          -3.55175472584488   -0.79767760796173   -1.49289840910650
O          -0.71167849783766   -1.69251957776635   -2.03417811930511
H          -0.35967289831206   -2.07720243140748   -1.22308732251473
H          -0.07072597950960   -0.96354739878653   -2.26378833264722
O          -1.10196329271788    1.65247795322660    1.98826990105249
H          -0.44798654405213    1.27462922306855    2.60664591150809
H          -0.50649647288459    1.92132003632644    1.24435732065109
O          -1.96094148721846   -0.50669056459259    1.10638789328829
H          -1.67753315635435    0.45794012622126    1.49824839223840
H          -2.35383320491552   -0.37016313885223    0.15020973749719
H          -1.09577074657981   -1.02759187553388    0.97992206643134
N           0.97069026320388    0.35175111873656   -2.24695578690896
H           1.58225226390825    0.09874114826564   -1.47147039555965
H           0.48862206845985    1.19184277042197   -1.94720012656580
H           1.55169945245321    0.58989209355151   -3.04073636476345
