    26
        -50.45892221  Gyration_radius:  2.42513853177 Dipole_moment: 3.966
 S           0.76942599584405    1.29443419020181   -1.04106824846800
O           0.25222832660627    1.26543431864914   -2.38938677149041
O          -0.26551407503205    1.65667713320911   -0.07067324415601
O           1.45784087805745    0.07977997502354   -0.64744507940964
O           1.84835866982685    2.44524788194132   -0.99526865049360
H           1.46383379659289    3.06331722447680   -1.60649981631549
H           0.53461661225308   -1.23780576873094   -0.69704111896711
O          -0.08716500243423   -2.00700030883585   -0.74588474324319
H           0.45823067416135   -2.78967199910640   -0.83688859287543
O          -2.53543624648458    0.53550962219097   -0.35771544659751
H          -1.72587520551539    1.12876270116783   -0.22629767537094
H          -2.36094361154732    0.09618744420815   -1.28229695680558
O          -1.66471524792860   -0.53725223542433   -2.46728354626626
H          -1.19512343593886   -1.29108759062907   -2.07378937177441
H          -0.97259720263951    0.13994969632237   -2.64087375684481
O          -0.23158291296326    0.39354800121651    2.35963513258912
H          -0.20984430443048    1.01424397993117    1.61206961724136
H           0.68995786582193    0.06132504485619    2.43591854483115
O          -1.84483612248324   -1.25394450266722    1.19816753582388
H          -2.36022321709928   -0.27970990932615    0.37967257791252
H          -1.23523514050989   -1.72734797163224    0.60051129785874
H          -1.25981473638861   -0.69636408878637    1.79921481230417
N           2.37961647371620   -0.32254279121938    2.05898062478254
H           2.24894087732288   -0.19320629133977    1.05659951119370
H           2.81556682786663   -1.22442791722468    2.20364506518174
H           3.03028948331098    0.38594417152861    2.37399829934887
