    26
        -50.45870178  Gyration_radius:  2.4496219191 Dipole_moment: 6.220
 S          -1.06686356825377   -0.03678064940273   -1.40209790088628
O          -1.47734463803501   -1.28943073191166   -0.80050355503638
O          -0.95527825250077    1.03364266091259   -0.42368389452900
O           0.12160917801793   -0.17233426674774   -2.22953901513685
O          -2.22422388414172    0.41417766928656   -2.38309731647998
H          -2.09264148200498   -0.14772353297521   -3.13977772701371
H           0.93885762304482   -0.92377418914870   -0.95827310948150
O           1.19058521048748   -1.38140415715691   -0.13409356302552
H           0.47637195177729   -2.00945658848777   -0.00064146930758
O           2.45000811242569    1.20928617092786   -2.20991319978530
H           1.59530585739611    0.76943119457160   -2.36848531482352
H           3.09056148692561    0.50684776964403   -2.08298796260679
O          -0.87040058889241    0.64489985447075    2.09752491816362
H          -1.27639895959080   -0.32560127023139    2.15844856777019
H          -1.03417757576854    0.91000029619057    1.13953465399096
O           1.44125927515220    2.33263845524633    0.04768254860588
H           1.96160569717378    2.10667446720167   -0.74725248499395
H           0.52480982357035    2.12010400983870   -0.18895355944171
O           1.56903508706572    0.42807566641690    1.81264941674589
H           1.69013811707803    1.24181155223164    1.24150958775454
H           0.23213438097262    0.55298550251563    2.10421755900412
H           1.59337286353146   -0.31926583185879    1.17593203890634
N          -1.86588660523692   -1.69181828646463    1.92363105299143
H          -1.84041636457360   -1.68307385067707    0.89724877271551
H          -2.82870226317580   -1.79817893217982    2.21464972737213
H          -1.34332045244278   -2.49173299216124    2.25627124854517
