    26
        -50.45870191  Gyration_radius:  2.44977596181 Dipole_moment: 6.199
 S           1.48019000847011   -0.56905720925277    0.76751259125248
O           1.29016984668297   -1.67462318575567   -0.14971177456576
O           1.27310042591568    0.72007803587605    0.12658574155872
O           0.71622843106386   -0.71894458399663    1.99614542883212
O           3.00150497829748   -0.57765437234304    1.20440037963538
H           3.03478662532127   -1.28269046772211    1.84269017194980
H          -0.69628464852536   -0.97554788273629    1.10603321229966
O          -1.35310275421732   -1.15979036187849    0.40850066770839
H          -0.92719075104105   -1.83562161038318   -0.12476727637125
O          -0.99141023945002    0.98374235199863    3.22573050442567
H          -0.28824436495269    0.38390060348415    2.91738994343166
H          -1.78638416243454    0.45089457413356    3.28863868798897
O          -0.70047541075863    2.46711967672491    0.96919904961183
H          -0.90722550903914    2.13288608289608    1.86317697571700
H           0.14860166445730    2.05622349267748    0.74300037348679
O           0.11651213048672    1.01271217022387   -2.12967360136730
H           0.20478786911631    0.03772923457446   -2.52037622438118
H           0.70208852512379    0.99241183193828   -1.31014319885717
O          -1.98772410269701    1.12590628692176   -0.84914057384122
H          -1.95135291219518    0.25409474468617   -0.39847764981162
H          -1.66542344254241    1.77393951576042   -0.15723299145920
H          -0.88503384481431    1.10464759146920   -1.67033552415026
N           0.46936001553849   -1.41911548172821   -2.79413642036737
H           1.17981266708599   -1.60184100653860   -3.49049583931302
H          -0.32732489496505   -2.01109064657378   -2.99030179689710
H           0.85003383012376   -1.67030937456018   -1.87421088652867
