    26
        -50.46662434  Gyration_radius:  2.47175867539 Dipole_moment: 5.619
 S           1.17007950379753   -0.80481184685751   -1.66594970784413
O           0.36386471139017   -1.78193134927787   -2.34683799146662
O           0.80771865071900    0.57652401312074   -1.88570380244799
O           1.32345975671524   -1.07917230027322   -0.22827520667314
O           2.63962134601016   -0.98800511083386   -2.26158507988280
H           2.48117011849921   -1.63453200992759   -2.94140893728305
H           0.11956141956717   -1.88931603537119    0.59735648974967
O          -0.64524635505562   -2.25344395108189    1.09698759868277
H          -0.51659664621393   -3.20152330713219    1.14012618274139
O          -1.79637609171182   -0.84750875077278   -1.03920624551810
H          -1.11498545041498   -1.11643217695492   -1.67410762284526
H          -1.71728409241700   -1.46580918303579   -0.29938562023771
O           0.24617432362597    2.64461445107910   -0.44059398147181
H           0.41332536832828    1.87894899828763   -1.04861412344935
H           0.38707793451154    3.43406920316177   -0.96443513606971
O          -2.14619228619438    1.40354015325815    0.42198657032644
H          -1.45309988719945    2.00022915993566    0.10759590151259
H          -2.15618571187992    0.66325049934696   -0.21592630170019
O          -1.10890392588878    0.12165689262180    2.46716432872851
H          -1.66585676185089    0.62257426539805    1.81226206967978
H          -1.12252211046572   -0.79990393150592    2.16302178114277
H           0.22780391580572    0.61721248699466    2.00252454197227
N           1.12639690546903    0.92106075686477    1.45740509659281
H           0.90141185191285    1.76636765919220    0.90475736149263
H           1.31762428887260    0.13928198666039    0.76944645121168
H           1.91795922406588    1.07305943709390    2.07139538306525
