    26
        -50.46662443  Gyration_radius:  2.47184141251 Dipole_moment: 5.621
 S           1.29493917501864    1.18253180407130   -1.31072479379577
O           1.16497556418447    0.66916288689348   -2.64787597469287
O           0.17865077961963    1.95845371235919   -0.82124965982802
O           1.68378950409965    0.15618267173825   -0.33037747177239
O           2.54627220987227    2.17206590029541   -1.36332051712690
H           2.74542355308795    2.16442911606696   -2.29366205145842
H           1.24481144905362   -1.43618106240357   -0.57343701480374
O           0.87610755699786   -2.34359645500439   -0.66179281843812
H           1.53743777593157   -2.86350790938813   -1.11960993521763
O          -2.52450870102620   -0.48962536499988    0.37920470358385
H          -2.14602488912519   -0.50959753846610   -0.52156150130907
H          -2.33631877898227    0.39792098611878    0.71398736876246
O          -1.37919277749025    1.95042582911884    1.24115464423108
H          -0.84087850137154    1.98134708852116    0.40859921820196
H          -1.76360674651873    2.82216358189891    1.34018953426011
O          -1.03138070517253   -0.68018034614682   -1.87009259527940
H          -0.55206819101097   -1.48669301407939   -1.63411882371952
H          -0.36983755311253   -0.09418815356491   -2.26844929942864
O          -0.78795697298397   -2.07575133692049    1.55017366164841
H          -0.28225502506296   -2.42159477809673    0.79743594357409
H          -0.03120612928154   -0.83913194689079    1.93328328675851
H          -1.57848033799302   -1.62327994191241    1.14978694251390
N           0.47764918365931    0.12707257680702    1.99894570952384
H           1.07296876294292    0.19559036977987    2.81598700108594
H          -0.23858264708974    0.87368503993837    1.98208576160199
H           1.03927245175634    0.21229630427830    1.10543868112222
