    26
        -50.46273346  Gyration_radius:  2.39085389039 Dipole_moment: 5.184
 S           0.83909766342913   -1.16606867624555   -0.70261007970138
O           1.24628410902835   -0.72324508247235    0.64072049062027
O           0.19602567249318   -2.45474110706264   -0.68826448355184
O          -0.04717072601922   -0.14543670050059   -1.29930322668764
O           2.11405972551088   -1.21518000533740   -1.56208154852145
H           2.57613594374398   -0.34921080303784   -1.29654228769309
H          -1.61896780875744   -0.22800427998940   -0.99675111080932
O          -2.56610480292785   -0.21331291855935   -0.69664027489242
H          -3.10000986231220   -0.26957983253223   -1.48994269326891
O          -1.87053027667057   -2.28610733644151    0.93789862716873
H          -2.40441308380255   -1.68503183715205    0.38739754711592
H          -1.12476510087247   -2.56147533673931    0.35428339428987
O           0.32404150643797    2.25827484025710   -0.44343912768943
H           0.22834592065614    1.33279083863910   -0.79258097672816
H          -0.00248693659857    2.83786172477884   -1.13436470935247
O          -1.64255741815977    1.47989929839974    1.28145156960780
H          -2.19102743160426    1.04089169503862    0.60928656506652
H          -0.90229455637008    1.89725520941871    0.79345112631496
O          -0.59499642449210   -0.59962220395192    2.28739831598580
H          -1.04186626480084    0.29520669040291    2.01129951300995
H          -1.19287811337073   -1.36097157427971    1.87725177814445
H           0.26446167728069   -0.65368930366607    1.67790785960067
N           3.07606192724622    0.99410741455040   -0.61024926473255
H           2.31238240608630    1.66325712629803   -0.57207107273347
H           3.91937814834800    1.47021100702014   -0.90426474313875
H           3.20379411652161    0.64192116317418    0.33075878239898
