    26
        -50.46273336  Gyration_radius:  2.3908004983 Dipole_moment: 5.189
 S           1.42158299525183   -0.69558002580761    0.22534492878727
O           1.07093903355832   -0.23705652119572   -1.12865138912895
O           2.40394405813855    0.14734650768919    0.85693890635913
O           0.19285347583099   -0.77068051620964    1.04254912409089
O           1.95952951130421   -2.12996948185023    0.08543790295602
H           1.29441117386954   -2.53772751371053   -0.56705839454147
H          -0.29308055033882    0.54895238804146    1.81135760708011
O          -0.65261851284366    1.40158538272554    2.17353368407614
H          -0.74117990145958    1.27557237323890    3.11895273655872
O          -2.02739052953051    1.54010014451350   -0.21865794126885
H          -1.76904948055642    1.61603151169525    0.71560433367632
H          -2.13285553589156    0.58127692845188   -0.39113582497971
O          -1.97480722655297   -1.18799250038003   -0.28996929128237
H          -1.12290394023773   -1.07264691501411    0.20848841108787
H          -2.59277815685802   -1.58331489911044    0.32790445790361
O           1.43741763439859    2.59837379499539    0.88855485572588
H           1.98685109966732    1.77978777343324    0.91469724325396
H           0.72005343740047    2.43328337159343    1.52692557177763
O           0.22650994821274    2.08432175521308   -1.24729404175140
H           0.75443474268155    2.46143654035689   -0.42001412792539
H           0.60905412543323    1.10310902566122   -1.31314946672917
H          -0.75082841834481    1.95013464318135   -0.92604307110553
N           0.17241068042208   -2.84210335619258   -1.64955251155560
H          -0.71978668481867   -2.47880812569806   -1.32626720700003
H           0.03276630270017   -3.76612497880289   -2.03811609876685
H           0.49452072856671   -2.21930731687831   -2.38038041727339
