    26
        -50.44576819  Gyration_radius:  2.58148947498 Dipole_moment: 6.268
 S           1.88853770402450    2.09569422701961    0.70566022818023
O           1.91013779830454    0.67317164337575    0.95547376295098
O           2.98611861081534    2.85958068199024    1.15995300309926
O           1.71678755116978    2.29764561955993   -0.82958890792903
O           0.58121014300297    2.68298493235117    1.29794182440702
H          -0.19539672345301    2.06961142121607    1.18134665492546
H           1.27442505733164    1.50707084902941   -1.23557909152023
O          -1.54211711764365    1.20003275215665    1.06190708875829
H          -2.28647973693752    1.75320990999454    1.30336167044335
O           0.67590463538308    0.19485292467018   -1.98286520251426
H           0.95223412304573   -0.57505340780193   -1.39850561953979
H           1.12925066158813    0.08371582775967   -2.82030740413123
O           1.44777111585929   -1.69942662861078   -0.38259312022395
H           2.19684527944068   -1.22128584182311   -0.00755891123822
H           0.78400272725772   -1.66707262441940    0.33578916977966
O          -0.05033049008547   -1.01787602340730    1.80394308259345
H           0.75103042144531   -0.47021746220289    1.82793288496664
H          -0.76296691075191   -0.36979076461659    1.70760736809172
O          -1.97634540411809    0.11405955130676   -1.22508950354495
H          -1.98918833359909   -0.84106958429828   -0.96632289260141
H          -1.74475909206722    0.83104406137522    0.14103076042374
H          -1.13307826073159    0.23933791512793   -1.68589577051079
N          -1.71735762007011   -2.44508650942829   -0.35360481375616
H          -2.52853715550644   -3.04866318263157   -0.31099400718261
H          -1.37189046393181   -2.31850293906314    0.59242686491100
H          -0.99580852977777   -2.92796733863056   -0.87546910883412
