    26
        -50.45945670  Gyration_radius:  2.40603329184 Dipole_moment: 5.311
 S           0.77060404080654    1.34960687750936   -0.91262778123423
O           0.04212436189928    1.91098998776333   -2.02030033990727
O           0.13433242540560    1.59271015948778    0.37668650616490
O           1.09372521072046   -0.06328856562374   -1.07132984635846
O           2.16843187507298    2.09532031233414   -0.87518644395204
H           1.91991191469336    2.91094965413216   -1.29444431876535
H          -0.05096202399214   -1.14258004176972   -1.06794807307394
O          -0.79783215260190   -1.79928528856202   -1.01036151314079
H          -0.43857904013860   -2.64683250621434   -1.27646989718161
O          -2.46206220260167    1.04938763084878    0.63050344133566
H          -1.58430202842724    1.48329465459610    0.64997955249318
H          -2.63001788034355    0.90950207503981   -0.33616506394411
O          -2.23929883716396    0.51660859691649   -1.92887764806612
H          -1.91977649410371   -0.39272483762412   -1.94050828316880
H          -1.46399288527503    1.08566775976369   -2.10409642168335
O           0.45139468689768   -0.21459258610509    2.27420700666592
H           1.26544169662214   -0.69556524816557    1.96983036949361
H           0.41072469919086    0.58044143720176    1.69683552327659
O          -1.65029772200777   -1.17809412057635    1.37420686166125
H          -2.12653273470859   -0.23872781197934    1.12618665934478
H          -1.37616266797224   -1.54878903873969    0.48567243949226
H          -0.73994210139632   -0.84846385857802    1.85614567895325
N           2.61768840398309   -1.16978303533687    1.05017958107819
H           3.43941397631505   -0.62897680406613    1.28850463606951
H           2.25047462624752   -0.79398272195505    0.17456933916312
H           2.91549085288952   -2.12279267030064    0.88480803528447
