    26
        -50.46040329  Gyration_radius:  2.68240856159 Dipole_moment: 2.828
 S           1.84137472814128   -1.97545107203942    0.84619778688814
O           2.47319834191417   -0.68841386898385    1.12147871877571
O           2.74201746175912   -3.07618190410881    0.74555487346314
O           0.90053685118031   -2.27761624623989    2.11794925529640
O           0.88482095191328   -1.83873033219607   -0.25672405028330
H          -0.49423212578052   -1.35054836655512    0.45568459617035
H           1.51447537966944   -2.76531725052818    2.65513996557865
O          -1.32514634515831   -1.01100984077033    0.86529574443255
H          -1.43755682774498   -1.53861114865275    1.65807315091516
O          -2.00267637144238    0.03744913831853   -1.66862970301810
H          -1.98644260054557   -0.45998697996451   -0.83878869563268
H          -1.09422766861131    0.00014632035236   -2.00707422955315
O           0.75333306065758   -0.07534431232222   -2.15500216730990
H           1.17684035303560   -0.39335323001755   -2.95313593327560
H           0.82353263886724   -0.80825622890879   -1.49155768497779
O          -2.32382839355936    2.52747212492129   -0.79719618497380
H          -2.25719831448179    1.64430998863889   -1.23561131095385
H          -3.25438562093191    2.75313693628794   -0.78843908158961
O          -0.93940271512995    1.64055158824923    1.30980742033608
H          -1.18485272837793    0.69392465067214    1.26895260060064
H           0.42793661136643    1.57818451870859    0.63111753375969
H          -1.50078071278511    2.08832513352730    0.63877324380534
N           1.34747088903193    1.39816449859645    0.09150424577361
H           1.12860325609916    1.11903637382255   -0.87746171408750
H           1.83929066898450    0.56284832323232    0.55351923884603
H           1.94729924191785    2.21527117596444    0.11057237099340
