    26
        -50.46067659  Gyration_radius:  2.4372859705 Dipole_moment: 5.096
 S          -0.66411082292270   -1.72621034543407   -0.57974656873919
O          -2.03906638635639   -1.39023362482969   -0.27254923559632
O          -0.23237860394495   -1.24090575138989   -1.87654475786847
O           0.25435079510668   -1.34623947926233    0.48144512539883
O          -0.59299876475116   -3.31226121374119   -0.63741206122346
H          -1.28556147709358   -3.52758313337016   -1.25348468532886
H          -0.81531879214702   -0.19966316010949    1.14951720512650
O          -1.25901283558685    0.53194204249269    1.62464925071283
H          -2.19472960174402    0.32790451911302    1.55308800025887
O           1.23959501028579   -0.24666246673781    2.69604467715715
H           0.94887176472987   -0.97142965922449    2.11539051753433
H           0.44298419843776    0.28842693928666    2.81249301885633
O           1.23574330795833    0.87733919248952   -1.37815980182414
H           0.77648071354401    0.03480965956036   -1.60538571161115
H           2.01686331175482    0.74697698514893   -0.22795035645185
O          -2.32370005683914    0.62900125709997   -1.98718046061708
H          -1.68778804769915    0.29726077287086   -2.62861280055242
H          -2.40136865958578   -0.09678302447911   -1.33826882172579
O          -0.78832214807757    2.24099448078977   -0.47866057576803
H          -0.95835298428468    1.81820211315731    0.38222082661324
H           0.50332466970199    1.50335592613889   -1.10190525310240
H          -1.46550996057434    1.86356965143302   -1.08063584443196
N           2.68469585225646    0.73609583548559    0.69771686820299
H           2.11400783929426    0.39664254525099    1.52889937543017
H           3.03811811659118    1.67243407234235    0.86654393913013
H           3.45318356195405    0.09301586590989    0.53848812043851
