    26
        -50.45061325  Gyration_radius:  2.44921352426 Dipole_moment: 4.859
 S           1.30485998422429   -1.34922126686031   -0.87255646027275
O          -0.10127790376264   -1.24846759704355   -1.21822984828872
O           1.88151342819114   -2.63392270358509   -1.02885693000851
O           2.08721426336844   -0.31130032167960   -1.70899576991800
O           1.47750454106170   -0.83612373089233    0.56535985911752
H           0.54053438515081   -0.64164448644307    1.05770324887568
H           1.63221576851063    0.55052375221763   -1.51867912487652
O          -0.68645265071883   -0.38188287532719    1.67826984400792
H          -1.20821231815023   -1.17620138992142    1.44702891691577
O          -2.68623689041900   -0.40249051390530   -1.51057044550786
H          -3.07349307180826   -1.09999286985955   -0.97433740885832
H          -1.77625959641931   -0.68804623253345   -1.68505313344070
O          -1.65967307685638   -2.59247801900708    0.45156237680718
H          -1.09815716607869   -2.22241454153378   -0.26134574200721
H          -1.32024275496891   -3.46974361897566    0.63347324453206
O           0.95179530108996    1.92076003410326   -1.00115428306539
H           1.29658680281832    2.68645929895394   -1.46467548535732
H           1.25875378977792    1.98879322816664   -0.03973991471824
O          -1.61090905302557    1.46833396512101    0.09513057076226
H          -1.08641097513226    0.36911524236406    1.14578820985441
H          -0.83212535233043    1.70660365233891   -0.42736075597241
H          -2.16524785075720    0.92266771342987   -0.50278435859269
N           1.67274441293248    1.93511014478546    1.52889663989017
H           2.33293551868644    2.56912168564377    1.96062300847019
H           2.04858541170545    0.99337401792266    1.57533729379770
H           0.81945506290267    1.94306744250068    2.07516643785109
