    26
        -50.47229931  Gyration_radius:  2.4359490115 Dipole_moment: 1.578
 S           1.52941095379353   -1.40137044290232    0.39769848916082
O           2.68822580901940   -0.81059665531838   -0.23005808983397
O           1.18505898580692   -0.80952971398306    1.68008183459538
O           0.36434703118160   -1.45520013285471   -0.47509217990698
O           1.93197681967463   -2.91206806297065    0.68675613180461
H           2.86772411104317   -2.88427881620990    0.51908847954475
H          -0.87284801410081   -1.27543553419737    0.60736386889613
O          -1.59965195225362   -1.10702627664864    1.24643021218876
H          -1.17942344935777   -1.21346487615429    2.10331387002463
O          -1.78362348125237   -1.34467762155671   -2.01559600997918
H          -2.42973501171899   -1.56482818599147   -1.33851032331454
H          -0.92387238287055   -1.60100054658276   -1.63387355358757
O           1.49908762112020    1.40240411768473   -1.05211020626065
H           1.38046883161849    1.77467834052793   -0.16191168914964
H           2.00237109336946    0.57508814392257   -0.90493992557032
O           0.85276304843064    1.75657013347372    1.60067751868297
H           1.34789330055482    2.14318043413874    2.32416321738819
H           0.98535007438639    0.77437789058700    1.67163753494221
O          -1.78126931266138    1.53436125485220    0.84366125155798
H          -0.92427290400498    1.79021662250534    1.22657935387299
H          -1.45796524177730    1.43952335550465   -0.68683410093960
H          -1.87749850372679    0.57926203400528    1.06381256413085
N          -1.06392771230428    1.22073967960184   -1.65808661672893
H          -0.00612334152422    1.22494158203046   -1.54443801631191
H          -1.35345590672592    1.90812006471116   -2.34438978375390
H          -1.38101048569731    0.25601321183162   -1.92542383145709
