    26
        -50.43947933  Gyration_radius:  2.62147558174 Dipole_moment: 4.151
 S           0.25786208329685   -1.11573943594418   -1.29981360400700
O          -0.38841520870813    0.11407285396461   -1.66208637859224
O           0.46584513692411   -2.04736757346718   -2.35585490468083
O           1.64454460590732   -0.73820382412701   -0.64389637043503
O          -0.45750266477952   -1.77368079040935   -0.12215501417011
H          -0.11269663269085   -1.34609268869645    0.78144485624918
H           2.17116176723641   -0.43676273479112   -1.45028420067438
O           0.36806408892846   -0.77526901384595    2.00497880684236
H           1.32187518003495   -0.76659636403968    1.89738047972589
O          -2.50622600492467   -1.49978630499434    1.86701749820260
H          -1.71427675717243   -1.49105622811930    2.41435823296607
H          -2.22104954816241   -1.81776418608179    1.00359508488358
O           0.80111743909946    2.16033995403414   -0.45045738962056
H           1.67995701194433    1.77929201100835   -0.39710464168840
H           0.25823791661461    1.52205264139174   -0.95607242979513
O          -2.97945164094852    1.16699568762307    1.61967228485700
H          -2.92993002529814    0.18998618141762    1.66014273747446
H          -3.63205972687971    1.43410233789609    2.26828001060536
O          -0.35220164529149    1.65419523751609    1.93589941299500
H          -1.32336323361875    1.62016503167684    1.80378323840979
H           0.07364289502041    0.21508116877720    2.02461069704147
H           0.01967364903112    2.00821564845386    1.10096021383904
N           2.42707361575334   -0.03332242817676   -2.99611375937555
H           1.86925353469652   -0.80975133729033   -3.34152490390303
H           3.32058119908667   -0.03443465736233   -3.47277953142179
H           1.93828296474430    0.82132882249575   -3.23398044534652
