    26
        -50.46572407  Gyration_radius:  2.46286744599 Dipole_moment: 4.455
 S           1.89619055449261    0.03254520532733    1.05915588627893
O           0.95113237027749    0.26541589490922    2.13581600488011
O           2.40530285917354    1.24125703509569    0.46459776648748
O           3.14078559911945   -0.73848611666242    1.67618193188407
O           1.33160803007340   -0.87718907432516    0.05523157880160
H          -0.06713716583200   -1.40227880898323    0.95121216329533
H           3.81152782022565   -0.06863838775825    1.77296906918133
O          -0.92695977365219   -1.64608073079666    1.34146362575428
H          -0.84939324289632   -1.39145324756865    2.26397487855175
O          -1.73372387062373   -0.12767629597946   -2.32408773834344
H          -0.51603160160600    0.64719444287861   -1.97099076173507
H          -1.39830158589829   -1.04520592604696   -2.22584332301745
O          -0.52064173849192   -2.37579760627425   -1.46912541028155
H          -1.04291231316241   -2.65074058060097   -0.70868805528035
H           0.29975109354422   -2.02899104134892   -1.09363322427249
O          -0.38397865617401    2.13715805569261    0.91174806459557
H          -0.01048812233227    2.97296363884216    1.19721889051762
H           0.07742329696114    1.44695342440282    1.45022460425066
O          -2.47540740112451    0.29474150593589    0.19174543616948
H          -2.24370175307085    0.03749307916849   -1.49595183035003
H          -2.04592621719942   -0.46770508640423    0.62779485554762
H          -2.01514129544667    1.07414866848545    0.52291856941100
N           0.37064634211195    1.08325313620406   -1.48668280042451
H           0.07082460941522    1.67675487567116   -0.68303814152489
H           0.96875255272048    1.60746812905849   -2.11571628714796
H           0.90579961939865    0.30289582109837   -1.04849572322373
