    26
        -50.43947926  Gyration_radius:  2.6218374171 Dipole_moment: 4.161
 S           0.77164678598678    0.82274543324637   -1.31550630169759
O          -0.29076831528940    1.54825361659709   -0.67793534716597
O           1.41013579250928    1.47882003502978   -2.40562897736339
O           1.83879927906469    0.48346218067548   -0.20114248905468
O           0.30528070956031   -0.57535834089489   -1.71454737586643
H           0.38866371679498   -1.22409673488431   -0.88345637667669
H           2.25193050605019    1.38986464307369   -0.03819765090001
O           0.51744699931021   -2.10388701100805    0.24002373643421
H           1.39114088192660   -1.90971424369272    0.58687843155920
O          -1.80165163724648   -2.51658903772548   -1.56303088295505
H          -1.11781944045854   -2.94412822743373   -1.03726010916362
H          -1.35768351107007   -1.80459086435655   -2.03624412297703
O          -0.11798337414881    1.28400581430440    1.96213191299909
H          -0.32023472609036    1.46815950379772    1.02244429880337
H           0.83438716459589    1.18094028106624    2.01449182846990
O          -3.29629823147244   -1.36173086411167    0.39336345261223
H          -4.04076727148315   -1.92859132237655    0.59917703255160
H          -2.85837142800543   -1.75060141041230   -0.39137110479807
O          -1.11709417366067   -1.22232713637511    1.96502898109170
H          -0.15278809279829   -1.78883384160101    0.96098426400012
H          -0.86758857876060   -0.28393636737281    2.09898503444144
H          -1.98088972829507   -1.20653664824564    1.50081519789746
N           2.42712310100545    2.99232401821244   -0.17240557814972
H           2.25702447559082    2.97601211163800   -1.17439519587106
H           3.27487491219480    3.51625629518971    0.00743275426214
H           1.65148419456277    3.48007812730096    0.25936459780743
