    26
        -50.45020624  Gyration_radius:  2.49101103382 Dipole_moment: 5.963
 S           0.30867883243005    0.06957994023162   -2.00093007390900
O          -0.06557435226440   -0.87069073196957   -0.95744619753271
O          -0.49530457344201    0.03717432676955   -3.16880652089234
O           0.31739918552748    1.47376201891310   -1.38849125245213
O           1.78316585156417   -0.19299527341269   -2.37419118804560
H           2.31174430106395   -0.03830843716156   -1.54050112421168
H           0.29147734393711    1.45754153663357   -0.33790618660246
O           1.54656653152599   -0.91908313312344    1.91942398840657
H           2.10935699421572   -1.22883623251714    2.63077679795784
O          -2.62487801789984   -0.04028623602710   -1.25037315355177
H          -2.54297888187587    0.22465763865399   -2.17083852913179
H          -1.79930689434887   -0.51220790998512   -1.06596870999871
O           2.84030638180391    0.38849003849780   -0.08430231143431
H           2.42657500300653   -0.13958988743152    0.63102325219756
H           2.58488695202729    1.30103279735721    0.07805440589102
O           0.22651817863854    1.42808443888756    1.10761087896969
H           0.51730676695090    0.56458911996950    1.44001326402053
H          -0.77243423820122    1.46535577999514    1.23445676456702
O           0.53392599546043   -2.95072857213251    0.55562148281139
H          -0.31260382571417   -3.33732320316624    0.78779969788614
H           0.34593224764260   -2.30314178706458   -0.15248420637443
H           1.18219289516374   -1.72227334861325    1.47344838387650
N          -2.40774399294173    1.46753969330682    1.21010416180161
H          -2.78477692805632    2.40411961069734    1.13869345316425
H          -2.90438008236314    0.98902342253756    1.95101412420568
H          -2.61605167384501    0.98451443014102    0.33419879838784
