    26
        -50.45127731  Gyration_radius:  2.48024761856 Dipole_moment: 5.945
 S          -1.03192206610593   -0.34494804933206   -1.50435939844148
O           0.32438965998970    0.07094350472870   -1.24210784614832
O          -1.16711734689318   -1.65536681384116   -2.05059751814486
O          -1.83470069908548   -0.21964504832073   -0.16917942917887
O          -1.73750000398732    0.69112125645046   -2.36178837282138
H          -1.70829064290326    1.60782566236944   -1.79793576266483
H          -1.42993351763188   -0.80489209569265    0.54222141653859
O          -0.72514830931899   -1.61830540476841    1.67574653363258
H          -1.26699005919497   -1.70257363645732    2.46230769502970
O           2.81783862854933   -1.22574705842220    0.40355345711804
H           2.09477628242547   -1.67631560302353   -0.08560336633197
H           3.43392267173832   -1.91877336553697    0.64660946072555
O           0.85874581062928    2.03945498747626    0.34444742168315
H           0.71104062378462    1.26722526256716   -0.25962602749453
H           1.75221469988922    2.33582397458566    0.15843441162878
O           0.77033413760351   -2.77327426019906   -0.44776927230295
H           0.22868734960120   -2.68975398457735    0.34662226558495
H           0.20008526824724   -2.49788880412489   -1.18039703975514
O           1.22134894633002   -0.01872544874520    2.17141821675482
H           0.04523027669959   -1.00376352928960    1.92227794812952
H           1.91242050415559   -0.43930592038102    1.60937625181129
H           1.01379524153376    0.81339212865692    1.71302897842901
N          -1.63584810717934    2.75529610742698   -0.90005019059246
H          -2.39861357714179    2.66654027609234   -0.24211474791775
H          -1.69507980215576    3.65093616397501   -1.36577058344729
H          -0.75368598958300    2.69071970837597   -0.38874448184564
