    26
        -50.45524907  Gyration_radius:  2.46633113913 Dipole_moment: 4.707
 S           1.25647872681314   -0.72070782653251   -1.31094653017463
O           0.75140769602302   -1.28974305042638   -2.52843177567098
O           0.94870868340507    0.69223142521440   -1.14732417096738
O           0.93416164406146   -1.47477132400886   -0.10318648389359
O           2.85057216408692   -0.81081804353229   -1.40037165234452
H           2.99944931198903   -0.74819340701072   -2.33812291538074
H          -0.59626097985696   -1.52812046376951    0.39279848567042
O          -1.54821082552980   -1.49312863735507    0.65686978625580
H          -1.76157783688327   -2.34985142485396    1.02887006895446
O          -2.34057061677162    1.96223443478253   -0.95993098870612
H          -2.01394879886404    1.16654041933712   -1.43917330666152
H          -3.23091602953204    2.11435933034021   -1.27919508657140
O          -1.75438989986608   -0.44572674383147   -1.95689910345937
H          -1.88065187299916   -0.93875239159560   -1.13434885911400
H          -0.88634914924677   -0.71116121288696   -2.30268045686792
O           0.73818364818486    1.69546524997525    1.13176694561218
H           1.31889854303937    0.98101489260093    1.63794906679218
H           0.83156811651450    1.40024085140845    0.14904532340963
O          -1.67257164695969    1.12218125374482    1.44792930025269
H          -0.28446597467820    1.50600491444439    1.34625209983012
H          -2.01708003069534    1.54179914906735    0.62000045693321
H          -1.71429426607446    0.16316756180162    1.27587016120394
N           2.14156977380266   -0.22226512533375    2.04388698429265
H           1.82272736543295   -0.84820461824307    1.29572395208357
H           1.96780749710389   -0.66650764892874    2.93600838814388
H           3.13975473749649   -0.09728755440524    1.93764032039077
