    26
        -50.47468847  Gyration_radius:  2.41766072971 Dipole_moment: 2.070
 S           1.16911844725410   -1.13327395256417   -0.56790098224030
O           0.50719844580375   -0.24842333129403   -1.53054030131309
O           2.42361418893301   -0.60438827728854   -0.11405672577827
O           0.25517898243576   -1.43758535865821    0.54369151597496
O           1.43251494155600   -2.48647550282063   -1.30579818702232
H           0.53585572676094   -2.81794544477854   -1.47800451465130
H           0.03765053250607   -0.27989520429138    1.65187846108755
O          -0.09659278187986    0.45459442831776    2.30079955800509
H          -0.23023162034678    0.03639129618114    3.15263115964695
O          -1.19489838886241   -3.01106233564779   -0.90606025567723
H          -0.80651217391085   -2.42297776001428   -0.21866557761770
H          -1.36129544952716   -3.85643914350423   -0.48450761550414
O          -2.13823228941179   -0.21234531697778   -1.11803500175410
H          -2.41373952291483   -1.13256358930939   -1.11072260635762
H          -1.19434991023141   -0.23533959954087   -1.36863901473779
O           2.14474362443933    1.68225196730609    1.23348484380422
H           1.47477130165453    1.38059977955539    1.86919435586135
H           2.46135134854885    0.86389439291537    0.79729503540480
O          -1.78495023211362    1.84235694035997    0.60577138110727
H          -0.50044149341520    2.26051294562163   -0.20779402858778
H          -2.12491917032673    1.12465866014398    0.03445024397907
H          -1.35638292663175    1.40040341302220    1.35871815257512
N           0.45592640861374    2.25273635528527   -0.68978433406414
H           1.20605262176401    2.22657516027184    0.06642508041653
H           0.57383363311942    3.02770741453177   -1.33178835255394
H           0.52473578621891    1.32603207318941   -1.18204230007406
