    26
        -50.45524960  Gyration_radius:  2.46691496312 Dipole_moment: 4.700
 S           1.91159366121377    0.40722070279182   -0.09992300063291
O           2.66545486153864   -0.05617964521169   -1.23051057194981
O           0.84634900140431    1.33784839480947   -0.44234243906883
O           1.42808662380079   -0.64675653409782    0.78675109175988
O           2.93196221621979    1.23248643109221    0.81360229456350
H           3.53390825933649    1.58634632492615    0.16707173326383
H           0.28203843513493   -1.64193686206878    0.25031942647226
O          -0.44176899676373   -2.19652964322606   -0.13133195389724
H          -0.30551985423020   -3.08752446959862    0.19329075661520
O          -1.86424591380294    0.50697218110815   -2.55518504049728
H          -2.26911669742958    0.21031078198726   -3.37118407705645
H          -0.94526145951515    0.15333553425513   -2.56517231980269
O           0.41414315848227   -0.88399323860673   -2.47885777424589
H           1.26765403593293   -0.54181790618022   -2.16563717517661
H           0.12533755535458   -1.53298730712687   -1.82228254085030
O          -1.20238763028270    1.51504555239284    0.97823932931163
H          -0.77453559613107    1.14343876716280    1.86360875767233
H          -0.39452475736911    1.55035880646042    0.34001321287432
O          -2.45288114992548   -0.34194243318926   -0.13009461111811
H          -1.83680310692372   -1.09692730800304   -0.09386990306301
H          -1.81128906022722    0.75310878427466    0.55834851252952
H          -2.38869249104513   -0.00816648487468   -1.06010075665033
N           0.12206241255108    0.53289475999437    2.91691532247958
H           0.68387944425150    1.20379050158583    3.42436154497368
H           0.74180517815093    0.02653613908222    2.27437608974343
H          -0.26724813970430   -0.12493181975454    3.57959407175391
