    26
        -50.45524890  Gyration_radius:  2.4667090523 Dipole_moment: 4.702
 S           1.45684173392653    1.17829322019200   -0.55510115776700
O           1.51926710620539    1.61792629535445   -1.92042491392430
O           0.26168058305940    1.61438263580486    0.15145100112678
O           1.69471698987691   -0.24884123310304   -0.36049692703897
O           2.68473102424738    1.87380630918062    0.19717709823059
H           2.78466316816267    2.68230186630881   -0.29491628121158
H           0.59764278916262   -1.29623619243693   -0.89944785161553
O          -0.12956962718165   -1.88060417205374   -1.22625634328590
H           0.28735509092244   -2.67185613693671   -1.56966579066260
O          -3.01574475252654    0.70755687857537   -0.81514225574881
H          -3.75774287518286    0.65334787369796   -1.41864347320522
H          -2.21689693289199    0.82385597105591   -1.37885567027625
O          -0.90681043133015    0.54303226755935   -2.44617515193868
H          -0.69088353798076   -0.38006884349467   -2.25416503525934
H          -0.07997879375185    1.04245348940306   -2.34405127259190
O          -0.66209744368628    0.27169611338914    2.04620075673774
H          -0.35655534037687    0.91869275625325    1.30504237464603
H           0.23199014849713   -0.21955412538728    2.29883383918402
O          -2.03692830898006   -1.26449365674170    0.63504126557012
H          -1.28447595698589   -0.41529691080542    1.52829143645148
H          -2.54666275359556   -0.57156211692679    0.14500067296896
H          -1.40545847466695   -1.61717737991619   -0.01904615525302
N           1.63932732834289   -0.77097130563598    2.35240763124319
H           1.86231040479069   -0.63869244656296    1.35941872505466
H           1.78452180883700   -1.74309698676944    2.59187611843921
H           2.28475706310848   -0.20889418000300    2.89164733013388
