    26
        -50.45524905  Gyration_radius:  2.46674406675 Dipole_moment: 4.701
 S           1.11587728909842    0.74294473175439   -1.42221320426592
O           0.55167292112113    0.92739263541836   -2.72947087802505
O           0.46630972267820    1.52772179039997   -0.38293167850810
O           1.27077918229709   -0.64999219849620   -1.01376642328716
O           2.61840682875568    1.28472449713621   -1.50095037797848
H           2.54837807654444    1.96320227473948   -2.16472453420216
H          -0.05072874599173   -1.52240433358637   -0.72452966560810
O          -0.90061166966519   -1.98967758542597   -0.53349102002765
H          -0.78679509824472   -2.89590824392627   -0.82276752961119
O          -2.94113299524152    1.17095408046311    0.48810408378403
H          -3.88398798964941    1.17172648526305    0.31842891432676
H          -2.50969560005756    1.02401083565833   -0.38469509131016
O          -1.91982416191038    0.30495673501412   -1.82312543757287
H          -1.10132977141492    0.63264516087067   -2.23078574003827
H          -1.73348197489338   -0.59771457072111   -1.52975259370521
O           0.44751689811052    0.73839107332364    1.98831827108381
H           0.41913601624575    1.17607679565010    1.05613040359017
H           1.29542501659912    0.12118351583528    1.92174479381182
O          -1.58942819513064   -0.69187629557046    1.77366117161029
H          -1.39499348855969   -1.27122996487866    1.01366872110326
H          -0.41525178751718    0.11936362033920    1.99293759569315
H          -2.19876769603113    0.00034925928180    1.41346401372144
N           2.48636804985288   -0.69335124184690    1.46753292262130
H           2.21152405733560   -0.77595316740571    0.48220079846852
H           2.62794529828221   -1.62131419686281    1.84475090358141
H           3.36668981738546   -0.19622166242382    1.50226158074716
