    26
        -50.45168064  Gyration_radius:  2.42513941966 Dipole_moment: 7.525
 S          -1.00169292616508   -0.23230873397085   -2.05851236995007
O           0.05624591837126    0.73979109229418   -1.83200833686637
O          -0.92570868659701   -0.97224308760694   -3.27232593627355
O          -0.83912875842815   -1.29101364382755   -0.83411618571970
O          -2.30752010875136    0.36557383386452   -1.73751584310847
H          -1.87483986243404    1.12611306470671   -0.64804741916414
H           0.11506672829668   -1.54396331258581   -0.76327009458623
O           1.69313565158691   -1.84925646187359   -0.41203989391252
H           2.05735196123871   -2.49226666894722   -1.02204389511513
O           0.90371253286072   -0.81850383324699    2.07555350424798
H           1.24322874648684   -1.35918651861910    1.34704095644249
H          -0.05420286145753   -0.95439912474195    2.09205517751625
O          -1.86613560663654   -0.82530320316965    1.55721909266701
H          -1.57971805498732   -1.08564676580720    0.64989432310348
H          -2.66958954633534   -1.31500084190293    1.73800418712926
O           1.18283010878511    1.64639255994113    1.16632119398090
H           1.12288242365778    0.73566802118047    1.55501202974577
H           1.59039877129383    2.19834221574691    1.83417391995654
O           2.52220038938492    0.51563539953618   -1.03662207314108
H           2.36492299585912    1.05217976251895   -0.24592902933317
H           2.11622763644737   -0.96418691854765   -0.64932435983684
H           1.70473941233176    0.66247817026120   -1.56220992853134
N          -1.48467001346463    1.58702263970801    0.30356107302265
H          -1.70422595870929    0.90781660437126    1.04980560129616
H          -1.90809785486858    2.49189533949915    0.47970962481084
H          -0.45741304775809    1.67437042115046    0.22561467157388
