    26
        -50.44460639  Gyration_radius:  2.51344101252 Dipole_moment: 6.591
 S           2.38077964724663   -0.64749840165320    0.59124816041958
O           1.45453189556093   -1.19803362904305    1.54026355726748
O           3.58233809538590   -1.35879129412719    0.35219046439468
O           1.60053108956902   -0.44155235505135   -0.76170553626021
O           2.70376391138896    0.81656402465493    0.96202807689465
H           1.82183235439079    1.25282467794432    1.12251917639153
H           0.84507114620402   -1.09441315230487   -0.82266040138421
O          -0.38765634782532   -2.09815881436286   -0.93604625512772
H          -0.07238205483530   -2.97210378050838   -1.17092266244869
O          -1.94426910644345    0.42880128036963    1.24488568585692
H          -2.06708040345223    0.42084146267366    0.28193871873859
H          -1.13527108433280    0.93583208535728    1.40437382297880
O          -2.11936832545188   -0.03906952910697   -1.52480761304234
H          -1.50364820231638   -0.78951709098419   -1.45323568985586
H          -2.98636993389642   -0.41267424193076   -1.69245275267449
O           0.39937935308649    1.99257641181325    1.13815077379400
H           0.24051523564934    2.06996373775586    0.13736045445120
H           0.48270762404747    2.88317532709997    1.48385689629321
O          -1.06988112700761   -2.08934550052533    1.51317549573425
H          -0.16537250228054   -1.90604254095673    1.81993686362422
H          -1.53252071810761   -1.22272030603705    1.57773562065200
H          -0.70628705981087   -2.15947879668426    0.03878643160748
N           0.05799266485076    1.98942036395507   -1.45301910471518
H           0.15545560976781    2.78498545057011   -2.07022811294118
H          -0.82624217372605    1.53333871194284   -1.65573584152036
H           0.79145042232168    1.32107589914619   -1.66763622913956
