    26
        -50.45283497  Gyration_radius:  2.46198474843 Dipole_moment: 8.023
 S           1.97961943027716   -1.36509827809674    0.31260071320323
O           1.02662380465740   -1.38850203830089   -0.83435371511823
O           2.90059640169950   -2.44496511054228    0.32227036826079
O           2.57029834802852   -0.02793065695188    0.40547251630461
O           1.04627035823066   -1.49598053310904    1.59289433868305
H           0.11316536261954   -1.35361902944529    1.33645140382134
H           1.79795338107770    1.27758861998951   -0.74746839305520
O          -1.56637255097701   -1.11445314470198    1.06309680790915
H          -2.04880371037606   -1.77471149481870    1.56205593817873
O          -1.93434430186745    1.20478985956415   -1.91647864035350
H          -1.87174885146009    1.49929858411651   -0.99617100555826
H          -2.81980869229928    1.41561067985672   -2.21600185042882
O          -0.96956265882839    1.53268383288914    0.73361818719259
H          -1.31798505777824    0.64991731272017    0.94674661817799
H          -0.23547348901827    1.65453676153052    1.38354334467816
O           1.22776546498867    1.34748653101670    2.19197248553513
H           1.82123229551064    0.85995032283002    1.57119863398467
H           1.15671794306736    0.77533467044904    2.95835864558357
O          -1.56716260242890   -1.54975146956956   -1.49206692071619
H          -0.60746897361089   -1.71614268896941   -1.46550094142348
H          -1.65823032964706   -1.35668973445726    0.09413155167021
H          -1.67571306388869   -0.65126457907525   -1.84630921748164
N           0.87957571651608    1.10235259203225   -1.17563047078716
H           0.87229191703375    0.00305698595699   -1.17849616728509
H           0.75881225596275    1.51396166784761   -2.09459248055715
H           0.12175159250614    1.40254033723813   -0.51134173040920
