    26
        -50.44869443  Gyration_radius:  2.53152126573 Dipole_moment: 7.973
 S           2.60677304014549    0.42316475296744    0.69006030096646
O           2.40537050232412    1.05445997775495   -0.60339507178281
O           3.56008080560425    1.03130448750454    1.55179538840063
O           1.14442551852310    0.53179032729383    1.41938437059189
O           2.73097931104088   -1.03983138806233    0.55644116235082
H           1.62027757547898   -1.36437135554047   -0.21883446046967
H           0.64144571049767    1.29477576486169    1.07306779941657
O          -0.78286979378723    2.17671458005348    0.53659186626894
H          -1.03323649600592    2.92352760191763    1.08122609858530
O          -2.09748525072400   -0.62863430466205   -1.94758827056498
H          -2.77921207026081   -0.42664700521076   -2.58929952987559
H          -1.36157391159814   -0.01520582842700   -2.11763521485313
O           0.12603401816338    0.96838784403481   -1.76162325185345
H           1.08214777861464    1.07983728703560   -1.51350304886536
H          -0.31293510694811    1.57747523885275   -1.14841432349954
O          -0.53963070458225   -1.51561889631937    1.76179941054128
H           0.10782702920169   -0.77620819940915    1.78520076565489
H          -0.32855034562077   -2.08222521041613    2.50490643004408
O          -2.47238646251185    0.16501359194845    0.67279083716002
H          -2.47881439640575   -0.18220021225964   -0.23799446496269
H          -1.99414447828654   -0.49349951706386    1.19773632949172
H          -1.48843842466284    1.48350760404439    0.65184666482914
N           0.63364018917527   -1.52885099329904   -0.73586250014898
H           0.36131228380202   -0.62414865654269   -1.17987592247272
H          -0.04098023791803   -1.76909302404954    0.00391406882465
H           0.68994390668180   -2.26342444704580   -1.43273544375800
