    26
        -50.46800654  Gyration_radius:  2.46400520101 Dipole_moment: 6.697
 S           0.87267241521022    0.80700879313761    0.23500167623288
O           0.15548955374695    0.30796045557604    1.40369985062843
O           1.71670227301493   -0.25026246348632   -0.33689704787750
O          -0.04247066805432    1.32249048309096   -0.77412366095251
O           1.82535842655404    1.93343447835587    0.67837952591266
H           1.29259845246287    2.42954344404189    1.36734967938593
H          -1.16083653711027    0.12049459071789   -1.25368790184557
O          -1.60711642729816   -0.72389876159321   -1.46479955093950
H          -0.96988243035347   -1.19126710089206   -2.02593748381324
O           0.84424888489355   -1.56492689125247   -2.50025602957428
H           1.05519074231004   -1.18607353901628   -3.35473447609187
H           1.21943120668733   -0.95307854711263   -1.83226870700468
O           0.12330778891268    2.80562815902993    2.38062755061155
H          -0.55855364913805    3.17746132317605    1.78545948654511
H          -0.08925675989075    1.86245716817465    2.45441233645322
O          -1.59031014988633    3.16825289909106    0.33714289021872
H          -1.02834254149320    2.55696978441659   -0.18317684637031
H          -2.48852447792400    2.84427644086242    0.25004341238093
O          -1.35058402993149   -1.79537218691449    0.92358654624453
H          -1.69622679691944   -1.47922180212362    0.05076663049666
H          -0.11464397500156   -2.45465986178044    0.51247355488198
H          -0.92805196866563   -0.99219633543589    1.30319507920188
N           0.90030308558143   -2.68159130112262    0.11715829192226
H           1.42035700899320   -3.32776386359560    0.70012996816414
H           1.36434847859213   -1.72435912570077    0.07260035950458
H           0.83479208464552   -3.01130622968307   -0.84614511424774
