    26
        -50.44310752  Gyration_radius:  2.59896023587 Dipole_moment: 7.363
 S           1.12467013499441    2.08808785308958   -0.16884619222131
O          -0.03179444009277    1.32955669488457   -0.61559056731390
O           0.87490435048996    3.44533470083830    0.15211306649975
O           1.70485596966224    1.30196988596181    1.05622496363843
O           2.24688039090355    1.95587202810136   -1.18589720563011
H           2.47775144009865    0.92167898748488   -1.35108895544426
H           0.92209708341461    1.21270180889145    1.67150100937150
O          -0.97211387041124   -1.62428011700042    1.80817743032299
H          -0.50913959878421   -2.24094494454821    2.37599285011290
O          -3.27559746195313   -0.60220032765483    0.59764829129663
H          -2.57733321631360   -1.01714430798348    1.12584926645167
H          -4.09480795664464   -1.04796789609466    0.81611946382098
O          -1.95919883306743   -0.52662456166971   -1.85025829794429
H          -2.57283464812356   -0.53047998124621   -1.09607199852041
H          -1.52924714387937    0.33542379428533   -1.80939340827144
O          -0.58923967031392    1.05146047174735    2.18981234421116
H          -1.07862577747398    1.43899358157119    1.45688850861238
H          -0.79609083203493    0.09448511976523    2.17515441615641
O           0.21329883144881   -1.27291636956877   -0.51579325886172
H          -0.47763973571520   -1.59604727915770    0.94564142310367
H          -0.53384602505986   -1.40044256456624   -1.13981952879873
H           0.21682328601539   -0.28847473465435   -0.44393104516071
N           2.76387907586367   -0.50656949064831   -1.52871379328908
H           2.96985972690375   -0.73338477771726   -2.49205661253674
H           1.93418450593975   -1.02078086198806   -1.22658354575942
H           3.54830440407746   -0.76730671199527   -0.94707862383924
