    26
        -50.46548552  Gyration_radius:  2.49680854696 Dipole_moment: 2.966
 S          -1.08713926482232    1.33912278319313   -1.14280381600462
O          -0.74819477305173    1.21664666339403   -2.53534226761146
O          -1.70843565528796    0.15288803542734   -0.57870560245201
O           0.01197555857537    1.80372032767129   -0.29609981596176
O          -2.16912880330202    2.50467221331353   -1.05540814044868
H          -2.59491152502627    2.44565959541051   -1.90430330643255
H           1.38973929598022    0.93485853157782   -0.34606116002250
O           2.19006899569382    0.35890292037729   -0.39403108607014
H           2.92361423367767    0.93269368116897   -0.61923634339219
O          -0.47358475933822    2.12654478781575    2.27024694679810
H           0.29360517301974    2.56913399054241    2.63692418271854
H          -0.35985790030597    2.14762308366814    1.29220594061260
O           0.03604129435542   -3.00932812143134   -0.50194060518883
H           0.27164690487743   -3.81297453088949   -0.96689396544820
H           0.08850302220363   -2.28873205231875   -1.17313408638440
O           0.63045801742658   -1.06858037551008   -2.22126646442587
H           1.35842275989684   -0.66811967323440   -1.72291650738820
H           0.04747587088162   -0.32880976160537   -2.46322573263573
O           1.41075854210309   -1.66017422691550    1.33318569247726
H           1.85901518980069   -0.99886791091306    0.78087152679751
H           0.06005445941352   -0.98386780981952    1.70877278331087
H           1.01785520251141   -2.30340112791688    0.70069331736973
N          -0.88688810983613   -0.48954689576125    1.80680414873756
H          -1.54331859706861   -1.05949167913545    2.32814717651178
H          -1.25909352791888   -0.30929583532571    0.82509347012348
H          -0.75868160445195    0.44872339721447    2.23842370441659
