    26
        -50.44512169  Gyration_radius:  2.68177990667 Dipole_moment: 3.251
 S          -0.08397237369959   -1.83546617313275   -0.67804967883632
O           0.13395076633771   -1.06887246146433   -1.88099855404509
O           0.93660181650139   -1.77463914575937    0.30848207248862
O          -1.45001005387295   -1.41177081808876   -0.08522874990000
O          -0.36675390956421   -3.30693650013888   -1.04604728914218
H          -1.01516310013611   -3.24667801376627   -1.78948331477070
H          -1.47178662989172   -0.41563695248752    0.17379913104100
O          -1.56830166810811    1.03622736941287    0.49379352556351
H          -2.37901549079393    1.20464813837321    0.97780711323378
O           1.86307069574576    2.71480000212505   -0.03938261005289
H           1.95509104148034    3.64130291205775   -0.26549260421406
H           1.30637749705447    2.31572569013022   -0.74525231936623
O          -1.93452195196508   -2.38831111429556   -2.91103708705714
H          -1.22735441847394   -1.71964934621722   -2.91068120338886
H          -2.70466185278859   -1.97805421248905   -2.50956589345083
O           0.05174227468981    1.66403329241025   -1.72468733305167
H          -0.67984566099375    1.64414274014584   -1.09353182085980
H           0.23892408456097    0.73390629330964   -1.92561268586026
O           0.29587745342149    1.84639687611865    1.97808012007307
H           0.77124668420728    1.05520923208913    2.34505215670544
H           0.92809912086962    2.23883730142746    1.33876223538532
H          -0.79758117470835    1.35409670532094    1.12259535526288
N           1.65213151045744   -0.34060234605819    2.71760431451222
H           2.64727647947226   -0.15343568370114    2.73100805022750
H           1.46402268566837   -0.90293919378250    1.88972123163611
H           1.43455617454490   -0.90633459154228    3.52834582786656
