    26
        -50.44647006  Gyration_radius:  2.48310819659 Dipole_moment: 5.858
 S           0.79101941832974    1.75822903834275    1.39059257620022
O           1.07521107659675    1.78200067064555   -0.02300942322275
O           0.95833550112366    2.95391303222339    2.12712573761198
O          -0.68521867142646    1.25009118802700    1.56306680114931
O           1.59383687376349    0.61155814674587    2.03806104856650
H           1.77050710189724   -0.04488954195353    1.28395331878233
H          -1.13675437981621    1.10613757932977    0.68220071993063
O          -1.93663484333448    0.82921226030084   -0.66787517652131
H          -2.73215200826906    1.36239520067315   -0.70431929435622
O           1.88036671822869   -0.87892574470894    0.00270923558899
H           0.98855125528104   -1.24897883792398   -0.18195967002169
H           2.02031046661332   -0.19247635544241   -0.65882082329148
O           0.60450358839383   -0.96363450863838   -2.79991802629724
H           0.13159821488186   -1.40129661072819   -2.07472610157771
H           0.52955481252636   -1.53236815110279   -3.56670695751576
O          -0.68917978693746   -1.65394648170021   -0.41431285466125
H          -1.27191597293710   -0.88905278543858   -0.53135909312440
H          -0.74112047808429   -1.85982542839306    0.55156633918267
O          -0.20055435494507    1.62521923945760   -2.38051315746405
H           0.40802932155338    1.90483808129562   -1.67489454388972
H           0.15779463098867    0.78089871020412   -2.71029042689110
H          -1.32226250916977    1.17218254424850   -1.39817684205264
N          -0.59397889396348   -1.69393285011481    2.27535438215324
H          -0.70998260760213   -0.69239881278392    2.40072673835456
H           0.34777341668683   -1.92138290761522    2.57166129917546
H          -1.23763789030856   -2.16356665506494    2.89986417422225
