    26
        -50.44438665  Gyration_radius:  2.51400732869 Dipole_moment: 5.865
 S          -1.06210306471663   -2.31102368859904    0.22679856241112
O           0.33896172425673   -2.32925289023192   -0.08376122526580
O          -1.58272810377015   -3.37918381767268    0.99726064391440
O          -1.36427487699248   -0.93756442233998    0.94401989804279
O          -1.88753779889168   -2.14219689320130   -1.06489712570295
H          -1.48098469089904   -1.38073774564415   -1.56741287958051
H          -0.55160793646470   -0.62971049890975    1.44892224243155
O           0.70512652838224   -0.05557224870939    2.20285222533778
H           0.84257897106793   -0.51451150887338    3.03290827656716
O          -1.95523078192690    1.46441842967710   -0.32620902370975
H          -2.11521078200819    0.70118613565258    0.24603640642294
H          -1.20870597426162    1.93780652730656    0.08766109323441
O          -1.02922746087588   -0.01020968765521   -2.27115871463633
H          -1.56811729914226    0.09202012233842   -3.05820255242035
H          -1.38851996735651    0.63547224277588   -1.59715939985140
O           0.21813835348045    2.39885500588233    1.04798802775007
H           0.15272931557849    3.08858316610081    1.71005968716346
H           0.43638631423648    1.57482212713980    1.51917258428001
O           2.46193716973072   -0.81842994831693    0.55385682727803
H           1.93093901230835   -1.57131260318853    0.24358029334233
H           2.34745007078782   -0.13239614717597   -0.15629567865476
H           1.47888642498373   -0.34591896747188    1.58031646711472
N           1.70974756807645    0.99675144054382   -1.26992612950047
H           2.31700289145597    1.40994251626148   -1.96521801779915
H           1.29369883347862    1.74616468534153   -0.72830544223202
H           0.96066554949639    0.51199867897770   -1.75288704601209
