    26
        -50.44438665  Gyration_radius:  2.5140058325 Dipole_moment: 5.865
 S          -0.18145167659305    2.38276563349623    0.89989304454309
O          -1.43594633504350    1.78845942020538    0.53546330836635
O          -0.17833321865661    3.32515206752025    1.95702520619260
O           0.81553115109424    1.20445051973988    1.23112139295248
O           0.49903485264859    2.98621135837732   -0.34554826708540
H           0.47033554757226    2.28478004263051   -1.05603817951400
H           0.30586009294293    0.41675583425625    1.59153073700247
O          -0.43705416016623   -0.87577156246549    2.09639286131402
H          -0.70353797885073   -0.77897602290675    3.01188693554233
O           1.07453918321690   -2.37220704419444    0.34401415945337
H           1.52793903357724   -3.08522352847610    0.79609438790116
H           0.52714839969661   -1.91855000626925    1.00977581387489
O           2.38131424405399   -0.16713094219938   -0.61260248269275
H           2.20136682381715    0.39608275334478    0.15289855743247
H           2.00129973750328   -1.03591603383762   -0.38133564103063
O           0.68029908181128    1.10790228705650   -2.12775200720015
H           1.12581178802676    1.49379831882463   -2.88464794189804
H           1.36867207608968    0.57317770736930   -1.63736439868438
O          -2.48610733852196   -0.67819481208815    0.63014785779416
H          -1.30777282176667   -0.85368785214118    1.53789489819431
H          -2.41983893294035    0.28939442752853    0.56347982966704
H          -2.11800105798314   -1.00611756722052   -0.23300492230192
N          -1.11678912198480   -1.33884072517691   -1.57787511363460
H          -0.34079230746419   -1.89718854071831   -1.24001954815158
H          -0.74644266261012   -0.44133919725547   -1.87231266245599
H          -1.50708439943920   -1.79978654540604   -2.38911783557988
