    26
        -50.47468855  Gyration_radius:  2.41771166824 Dipole_moment: 2.064
 S          -1.67989830487162   -0.32507840559004    0.20610529616092
O          -1.03186484654897   -0.69453361488092   -1.05539432657951
O          -1.71554481395370   -1.41396938493705    1.14030698498171
O          -1.03756244867605    0.87311271924252    0.76744289824293
O          -3.14818214911519    0.08399950160325   -0.14376499619549
H          -3.02783749037623    0.88021098163926   -0.68691530293171
H           0.39614093162947    0.66503732462862    1.48698144175816
O           1.28319950459000    0.51366083028978    1.89779887237902
H           1.34982874302186    1.13481584499772    2.62446351279005
O          -2.10030768526107    2.43047929711724   -1.00078522472371
H          -1.57143225895371    2.00539882700538   -0.28750266509732
H          -2.51535817453314    3.20369134553771   -0.61363131469313
O           0.71946875043290   -2.19765525437412    1.90063932960563
H          -0.24226749234988   -2.05986715780048    1.77306082196732
H           1.06088411526697   -1.32779966172902    2.16672409674057
O           0.46842026281220    1.32438404064907   -1.97425896701778
H          -0.11427609905516    0.57776612834184   -1.73524012713399
H          -0.10856324996599    2.09223565909234   -1.98995289458444
O           2.55292667125167    0.34668487843017   -0.55408378528189
H           2.28456469100120    0.54615215747085    0.35915071664737
H           1.92894372554642   -1.09508655335273   -0.69343015809850
H           1.94398299954581    0.85429507539978   -1.12734337498832
N           1.26329726023354   -1.93291163394654   -0.65102124167466
H           0.31866941293776   -1.56690812915341   -0.93332073397458
H           1.16076757005083   -2.22108657314236    0.36958908474210
H           1.56200039534550   -2.69702823254830   -1.24561794303932
