    26
        -50.45958853  Gyration_radius:  2.42015202272 Dipole_moment: 7.266
 S          -1.28317547821986    0.10956775890489   -1.34089273658205
O          -0.71713955140286    0.01896859832489   -2.65700161628481
O          -1.12832927625932   -1.11547568272865   -0.55560832089349
O          -0.84472937940377    1.26539372129340   -0.56837790381058
O          -2.84438485228304    0.30949758433645   -1.53784826066684
H          -2.94877222024358   -0.08570023577669   -2.39579993685156
H           0.75508053976528    1.33853585671185   -0.29892645870481
O           1.72275374382957    1.31943052727802   -0.10595955682300
H           2.03427371627623    2.22376610584244   -0.16074165935849
O          -0.70521930227962   -0.89433168284339    1.92635210903878
H          -0.97140373442623   -1.05307999994072    0.95509146734630
H          -1.01957753736776    0.08550185255527    2.13106971229581
O           1.32674939401144   -2.42319383064227   -0.52386437399745
H           0.37542349467745   -2.25827617124431   -0.60066761183927
H           1.72092389342177   -1.89719955233183   -1.25382164718371
O           1.91973854032445   -0.48858871689136   -2.27101785840260
H           2.10056250481822    0.20248249060389   -1.61906673542167
H           1.01257921088738   -0.32600523936864   -2.58419834103496
O           1.73789899353077   -0.88106842558009    1.52428480216270
H           1.90055552785330   -0.04777579184564    1.04712949281699
H           0.38211210113302   -0.89696766413377    1.86670928160506
H           1.73116966141548   -1.58592480043351    0.80862297546529
N          -1.48922974743264    1.52593995696657    2.12293192403251
H          -0.93300530497319    2.21009734576102    2.61845452546279
H          -2.46200436348369    1.67259248334951    2.35724839767729
H          -1.37285059423180    1.67181352186666    1.11589831995714
