    26
        -50.45079852  Gyration_radius:  2.4445959996 Dipole_moment: 6.499
 S           1.69404237692806    1.03439320673604   -0.22523715498264
O           0.47926312178743    0.87102446001154   -1.00080471780849
O           1.98673665410052    2.37360571141281    0.15474625879176
O           1.57648315647015    0.12681902071030    1.03779875640699
O           2.84290546132208    0.37174229420637   -0.96082329810727
H           2.41378329467175   -0.57390516915955   -1.23545121144155
H           0.66413702358975    0.10570851896425    1.44560829582407
O          -0.74815406003152   -0.14205628530963    2.12678443325653
H          -0.76697091825322    0.20014811896200    3.02163497887053
O          -0.43467426435254   -2.38503844864681    0.53731689093994
H          -0.50702089651205   -1.66487049038872    1.18723784184707
H          -0.77688425169133   -3.17307518921440    0.96284021847591
O          -1.78042760428072   -0.61032031050305   -1.23153901804071
H          -1.46809688747454   -1.37678472683771   -0.73138354332251
H          -1.00189155832642   -0.03714806417681   -1.32228179198666
O          -0.83074400803015    3.02937673652281   -0.03970616895640
H          -0.10424425064827    3.52185997269732    0.35016476877933
H          -0.39734670607786    2.34522808202743   -0.57557214471658
O          -2.52946049310816    1.05868352068861    0.76906980877640
H          -1.49134129252665    0.34766095728132    1.61506946465511
H          -2.10541182141276    1.90050580378416    0.51707365129522
H          -2.50897514514341    0.50311386652050   -0.03934237732476
N           1.61320900863579   -1.76183153627987   -1.53597135774856
H           1.05908662307636   -2.00852848524564   -0.71795997694612
H           2.14554768879773   -2.56848324933654   -1.83516228038400
H           0.97644974849615   -1.48782831541815   -2.27411032615690
