    26
        -50.45015630  Gyration_radius:  2.45021811007 Dipole_moment: 6.612
 S          -0.27823453118978    1.68442534403610   -0.96938808273513
O          -0.27800422185496    0.25065736039522   -1.10669423243227
O          -1.28059660694268    2.39027656817744   -1.70086967791623
O          -0.46410989968965    2.03812348431238    0.53847122040640
O           1.11820364739967    2.19594278183188   -1.30340054248484
H           1.79115871587509    1.33229059016603   -1.30039262635264
H          -0.28020599929448    1.24697435018154    1.11792707388302
O          -0.15730039362356   -0.01278825505471    2.09682421196595
H          -0.44202700574594    0.23973097771250    2.97683458056639
O          -3.09490766585870    0.84139454899057   -0.38969285575150
H          -3.57796336351030    1.51061744596395    0.09952903025979
H          -2.51299807869591    1.32319550946898   -0.99917796705923
O          -0.15209093942001   -2.37873465202453   -0.60353586957045
H          -0.24441850073600   -1.49976336930478   -1.00509455961939
H           0.64015222370593   -2.30988134801670   -0.05533677302378
O           1.96398855516771   -1.37736773267520    1.09323760623151
H           1.23271759643735   -0.85460451792106    1.47638837828947
H           2.38204891826452   -1.84115944548608    1.82042035348593
O          -2.04971240068347   -1.29668872270711    1.00742965272960
H          -0.93448708005991   -0.55619249063099    1.68963952336591
H          -2.48452423128670   -0.62550822192420    0.44782375519584
H          -1.54049526321401   -1.86703163920317    0.39290237914845
N           2.55182705129363    0.12420625856285   -1.32060135727935
H           3.53312334964721    0.24402490559947   -1.53443533262689
H           2.11105412120009   -0.43829090794124   -2.03718675350032
H           2.44780199281282   -0.36384882250393   -0.43162111517350
