    26
        -50.44241758  Gyration_radius:  2.58584125218 Dipole_moment: 7.564
 S           2.69245457320199   -0.57065975108198    0.41088169162695
O           1.40950797715067   -1.23072371517937    0.26550660667564
O           3.83504666110423   -1.40083163312773    0.45994103927022
O           2.80101366744021    0.49623897086428   -0.71217666664004
O           2.64774232789887    0.29696990345518    1.69313664395530
H           1.88863617378029    0.93360683418775    1.61165548958012
H           2.04506261308167    0.35057072429727   -1.36487685205622
O          -1.66570112264889    0.63182253679976    1.57929221217593
H          -2.38381329121523    0.62601269106487    2.21263594342536
O           0.69705284001465   -0.12331838141370   -2.01824525779526
H           0.02064969110378    0.53566574774964   -1.75095375623475
H           0.68873229121223   -0.79999344837033   -1.31955769562340
O          -1.04735490196222    1.64030280142020   -0.92312061103913
H          -0.42347571664611    2.31419720586242   -0.64041315721928
H          -1.41449772961300    1.26890297593924   -0.10248194327403
O           0.64135213916072    1.96182126303127    1.58532338787355
H          -0.19243107575506    1.44373190279305    1.66895246561013
H           0.72237260291624    2.48947352700884    2.38207528914396
O          -1.18368741275494   -1.77231654551267    0.84263118266423
H          -1.53603778941650   -1.75392844657723   -0.07910890979149
H          -0.21708576216704   -1.76818495900879    0.75302545418732
H          -1.48525869665470   -0.33870537053146    1.34814892292645
N          -2.06552987167762   -1.37876457195042   -1.71950086334575
H          -2.26505724861215   -0.38724178846878   -1.78856526941748
H          -2.88951543182626   -1.88519937014541   -2.01786305110009
H          -1.32017749688214   -1.57944910310078   -2.37634229536058
