    26
        -50.46106738  Gyration_radius:  2.39330075332 Dipole_moment: 6.678
 S          -1.07760263319112   -0.51198669778668    1.08082777353559
O          -1.46817104630166   -0.88201183484829   -0.27008955919485
O          -1.22907880104951   -1.59788248611858    2.03452508459142
O           0.30002196996546   -0.01139166879444    1.12499027923664
O          -2.00523012601504    0.65979329963393    1.54064700786074
H          -1.90738688250806    1.37056015354457    0.86672512636351
H           0.84253585929942    1.31102125527775    0.51393242778061
O           1.13523695710029    2.18296312421005    0.12234995600882
H           1.67913932131561    2.60546529483400    0.78838455202702
O          -1.06842154638879    0.75765307159331   -2.37023606096803
H          -1.32621144904798    0.08820579737107   -1.70977521502270
H          -1.34667644471582    1.59580888037711   -1.98913613428754
O           0.74689805495090   -2.11390030216538   -0.99853902434955
H           1.06258380652025   -2.39339334543338    0.37954379308557
H          -0.17383222058989   -1.79347607813076   -0.88433948940793
O          -1.47547684425838    2.62934582354426   -0.18450707997377
H          -0.49095282963813    2.58628415085989   -0.15496058435093
H          -1.73234408204532    3.48663608653673    0.16013674488876
O           1.56100092102534    0.21427348154515   -1.96771078182077
H           1.21538548471484   -1.32149897810162   -1.37245513134179
H           0.67379019500641    0.40381506668824   -2.33868147519563
H           1.69058655848463    0.90115590436044   -1.30330782094104
N           1.11896163436284   -2.54332420804159    1.48822266537959
H           1.77321377571330   -1.86597410021310    1.86971811885674
H           1.36256290800049   -3.49390878188244    1.74769805792156
H           0.13946744926606   -2.26423291888439    1.82603677932251
