    26
        -50.46106737  Gyration_radius:  2.3932689843 Dipole_moment: 6.675
 S           1.00868282124258    0.74904014177832   -1.00680219291044
O           0.91113521581666    1.45171310634563    0.26257042503814
O           2.37676298737209    0.61018794272938   -1.47662275977810
O           0.37845439581125   -0.57332395098710   -0.94030029787722
O           0.22014897431953    1.57887734409293   -2.07194811161321
H          -0.69289699189760    1.68341216631664   -1.71945651397097
H          -1.13542085306352   -0.88971915299589   -0.78284004638544
O          -2.12068630448079   -1.03824897762353   -0.70308238170781
H          -2.34163819156667   -1.71441750665865   -1.34483309603236
O          -1.41624786242028    1.66016080475122    1.60378853183109
H          -2.01382884138173    1.86830108349998    0.87940923921074
H          -0.52486322454766    1.71596807265769    1.21235428936962
O          -2.29328439163716    1.58209938765538   -1.16637011071923
H          -2.37485126243930    0.62094859666291   -0.96270737014165
H          -2.92525237193051    1.77977752201166   -1.86012461353798
O           1.48706307274963   -0.55752984862215    1.87082813652618
H           1.35617416358056    0.31716412541579    1.44508687728647
H           2.20210344109522   -1.22185761277937    0.81118487279899
O          -1.12012372295692   -1.00573526030115    2.02141157978891
H          -1.31119437938638   -0.04671781648712    2.08879839062343
H          -1.52970483673853   -1.27001730794641    1.18924952610481
H           0.55787727667271   -0.88379393925504    2.00310748059178
N           2.73514454956775   -1.56222838670920   -0.11369313055985
H           2.16135701359501   -2.26284054892590   -0.57438482175469
H           3.67319864932926   -1.90247673308247    0.07225442559319
H           2.73189067330720   -0.68874327154878   -0.73687833778302
