    26
        -50.45400584  Gyration_radius:  2.46765580165 Dipole_moment: 2.264
 S          -0.46853603837401    0.06317909635108   -1.41307380517730
O           0.95795507323213   -0.03655365705717   -1.24371733435910
O          -1.16253622006564   -1.18677442132796   -1.39703153331361
O          -1.04140675236865    1.00321800348285   -0.32998901824971
O          -0.80655089349366    0.81949313686219   -2.69643461162283
H          -0.46640816379520    1.76311901289860   -2.54244292336435
H          -0.51989932793072    0.98478046999142    0.55766813100534
O           0.21087518147407    1.01014305309659    1.85978456549371
H          -0.37095526155570    1.38451473334637    2.52518738785476
O           1.77529832024587    2.27030302303457   -0.19646132887202
H           1.75420134085797    1.38875618482286   -0.61034835088986
H           1.47360997298339    2.12089156952966    0.70755226631744
O          -2.26170930645410   -1.70144906981791    1.00023479971021
H          -2.81265471856545   -2.48093066332463    0.91121678369830
H          -1.92107854826779   -1.50521588952042    0.10657224368997
O           0.00575950601823    3.12654053393640   -1.97585882918665
H          -0.72096459740326    3.46416090505097   -1.44649993688421
H           0.74593275943893    2.94010981743623   -1.34339234452467
O           0.10946351729127   -1.48556299660388    2.31063537790615
H          -0.81107314275362   -1.63060190378468    2.02046863239093
H           0.65719779530402   -1.93627873686695    1.61992395911425
H           0.26480925963842    0.00863542151173    2.08275714909014
N           1.28259785909901   -2.55030419614110    0.13982985029547
H           1.31791697036130   -1.68964613853029   -0.40200228089117
H           0.61589119284755   -3.15343434643569   -0.32656178164931
H           2.19226421207217   -2.99109295193059    0.08198292238122
