    26
        -50.44768856  Gyration_radius:  2.67856518363 Dipole_moment: 3.501
 S           1.09834397688717    0.22268901037318   -1.47516314582750
O           1.39469232008639   -0.95732096076390   -2.23202629390632
O          -0.25721176526426    0.66644642059433   -1.43937475149959
O           1.63489994768739   -0.01725978131656   -0.04946662033695
O           1.97705326741985    1.39974540940484   -1.98543899874730
H           2.88048570450931    1.01852356016512   -2.09384523887697
H           1.08027534889228    0.41969756118673    0.71156895276416
O           0.32134562139856    0.91880821094109    1.87291427551937
H           0.89461750409525    0.89973331755322    2.64182353036538
O          -3.45159434875166    0.37630951833937    1.32760324313466
H          -4.05998146775439    0.84139641958611    1.90292493830833
H          -2.91099547444374    1.06839353772742    0.88091189424069
O           3.96712627650537   -0.29730799891180   -2.01357701492230
H           3.21260406958726   -0.85851406120279   -2.26461182497626
H           4.19758866420801   -0.53964505837546   -1.11325545790048
O          -1.70919155250801    2.16311386066428    0.34274332105639
H          -1.01412846370660    2.06870631511093    1.00600998681377
H          -1.34149209129011    1.75150112015875   -0.45379834735064
O          -1.27940058599856   -1.02447509923027    2.06683720490282
H          -0.34712557503610    0.13113752875322    1.99581084599075
H          -2.15832749257384   -0.62179171472950    1.89750384473574
H          -1.07719497583674   -1.52534309892069    1.24015661195436
N          -0.78839167346544   -2.00600995596027   -0.40987950865197
H          -1.36823595933828   -2.75504776638874   -0.76996298362167
H           0.16487843990674   -2.19061968045484   -0.69891712995360
H          -1.06063973525563   -1.15286657433137   -0.88749132319921
