    26
        -50.45066195  Gyration_radius:  2.40384692873 Dipole_moment: 4.814
 S           1.73448999055150    0.47519190432432    0.62673813223361
O           1.13890017545228    0.04328826229789   -0.63970650115038
O           3.03761442569238   -0.05231497166039    0.85358866152877
O           1.77271312787099    2.03702152119769    0.57335118235245
O           0.78820560037065    0.14948738277248    1.73288293475390
H          -0.10987040224595   -0.88589043150425    1.36780437682861
H           0.86019622567569    2.22720861650319    0.28854088388647
O          -0.72756969111429   -1.63349895859099    0.94304437475896
H          -0.04937068958447   -2.18861893290982    0.44411387879839
O          -1.14116908486471    1.70159831636953    2.61526259238792
H          -0.32438651178225    1.16959555009018    2.48809988450554
H          -1.81165005787619    1.08866235609642    2.92357249661104
O           1.36825939055832   -2.51108718994845   -0.28563193185919
H           1.41999291008785   -1.56619868839143   -0.56712620853086
H           2.13713989560294   -2.64339666516070    0.27371957611155
O          -0.87632554068972    2.25042096543161    0.06154877590411
H          -1.21443003758460    3.11089405378747   -0.19470526898044
H          -1.08351169051343    2.13775902096734    1.02564781387969
O          -1.89169166283124   -0.22684578935039   -0.74006026330845
H          -1.45959226433424   -0.50957279782952   -1.59975164872150
H          -1.29965500680389   -1.06854669209550    0.19659902370855
H          -1.51486820535999    0.65186149649003   -0.54918388222294
N          -0.42331003463912   -0.90164331298510   -2.82773107690237
H           0.35481078632042   -0.47157299124571   -2.33185406003270
H          -0.47316729318805   -0.49712003403112   -3.75355278325097
H          -0.21175436474447   -1.88668198060376   -2.92521096325597
