    26
        -50.46892479  Gyration_radius:  2.48111927231 Dipole_moment: 4.975
 S          -1.03414967208229    0.70418695998547    1.78876528667987
O          -2.12377052496490    0.00851926097237    1.11492441735574
O           0.22469807021365   -0.00439338669705    1.63302716230224
O          -0.96621895378361    2.10439360128489    1.43302965750787
O          -1.36348956081113    0.66207662889346    3.33816308378860
H          -1.98191932690636    1.38097918125563    3.40575912987148
H          -0.43125770503857    2.26996841594434   -0.08307121268896
O          -0.06451282470416    2.34783017006911   -0.99768950303544
H          -0.33227777926383    3.20969807507231   -1.32005910845664
O           2.20956748140526    1.18061198755877    0.18822389565852
H           1.60522343857163    0.80874800733401    0.85285287970551
H           1.66668289722848    1.80053320766732   -0.31704202565491
O           0.74327522753157   -2.36339984136243    0.62504742243097
H           1.09627556781737   -2.93951777946926    1.30397225491840
H           0.59105434448553   -1.48796259353045    1.05779900479890
O           2.14644982328858   -0.95919050819104   -1.42898890534067
H           1.83049140442771   -1.61823634058229   -0.79645835670178
H           2.37638211743627   -0.17495118101919   -0.88195620280281
O          -0.07475021408030    0.02088494806465   -2.44194777822502
H           0.82973611102525   -0.33785688231621   -2.23710691598669
H          -0.90216602533948   -0.87957613424390   -1.58662854070436
H          -0.09544653815386    0.90370135923803   -2.02871824871577
N          -1.38917556332803   -1.52674404459238   -0.85136836818985
H          -1.76007151115639   -0.90673909152357   -0.07059338239759
H          -0.66593783394863   -2.13092999712228   -0.43197098290978
H          -2.13469241988276   -2.07263403268231   -1.26796468322218
