    26
        -50.46935348  Gyration_radius:  2.40005369179 Dipole_moment: 3.537
 S           1.47080671602097    0.59859942430810    0.90867142307302
O           1.19932229013374   -0.84861421538100    0.85466705548430
O           1.88343518004588    1.04477139669953    2.20083907709658
O           2.60619241181575    0.86686170745324   -0.13080318524258
O           0.28861525839510    1.33256676242927    0.41555434970163
H          -0.47898341743276    1.27098333404857   -0.92956061816372
H           2.24723068936600    0.54106459845084   -0.98181188249553
O          -0.91668205892082    1.20089228225415   -1.82591635149376
H          -1.25806404965956    2.07443810784728   -2.02226781024671
O           1.48430052797549    0.17189352661149   -2.48259694449266
H           1.91449755546083    0.66877356950075   -3.18093423422836
H           0.57648666926364    0.53468735132132   -2.38534182082597
O          -0.83119799717303    1.36616100526713    2.79026021287216
H           0.00217703901126    1.33094056320175    3.27496200914756
H          -0.54010549354131    1.61980464622982    1.89178979640650
O           0.29903331660258   -2.16032936455694   -1.30451937790361
H           0.72166772881402   -1.80500179514628   -0.49822174721012
H           0.73972682132079   -1.70410788035019   -2.02829810546814
O          -2.09709527600800   -1.09343610921673   -0.76941399799080
H          -1.93167792812208   -0.23782737719141   -1.19497866877982
H          -1.33636598772387   -1.64976883636108   -1.05722067177982
H          -1.75117157123817   -1.01424221498924    0.77721142081489
N          -1.23686195865477   -1.03928028238251    1.71449478899127
H          -1.32363975637015   -0.13650155651268    2.24442846568656
H          -0.20668473259855   -1.09575085217105    1.44936316268577
H          -1.52496198679011   -1.83757780134850    2.26964365438556
