    26
        -50.44798318  Gyration_radius:  2.52274398893 Dipole_moment: 2.350
 S           1.51534769622064   -0.32391855581135   -0.47403376719116
O           1.02467332996149   -0.79770740064302   -1.74152894423429
O           1.25481145654288    1.05025209509812   -0.17834895125785
O           0.97754382745029   -1.23470277690123    0.63461386601972
O           3.03409878330234   -0.56963093166372   -0.37540651769640
H           3.14178857584224   -1.50599075708984   -0.67241496299696
H          -0.07325484615249   -1.19642631558942    0.75864157926223
O          -1.48841549670508   -1.18062814509563    0.93506379080802
H          -1.71188930390779   -1.74700733082004    1.67700275408758
O           2.53771868613417   -2.94924220160263   -1.29489271483968
H           1.88117750971471   -2.43037012263005   -1.78997071841972
H           2.05388015941047   -3.45899543244067   -0.64004881590303
O           0.63060080160545    1.70838636222666    2.35917681397047
H           0.93279124154294    2.60555737676620    2.51112368377695
H           0.93226847804859    1.46584521636674    1.46441080277850
O          -1.73831587664584   -0.53004147788369   -1.87507917816721
H          -0.78733877754652   -0.63164811223591   -2.02134692101499
H          -1.91767201834866   -0.92648272565157   -1.01556872994651
O          -1.93959152235613    1.17798611389562    1.66705706412406
H          -1.90994005145208    1.64670967024490    0.78462840519139
H          -1.72491781121450   -0.20403806542991    1.24312142298228
H          -1.09519805684233    1.40945275679263    2.10066987546782
N          -1.49005595121623    2.14499875931223   -0.75822144579497
H          -1.79811696606986    1.36782749808842   -1.34279596237712
H          -0.47558020618211    2.10412696676631   -0.74321169258404
H          -1.76641368116531    3.00568751595110   -1.21264074599877
