    26
        -50.44736360  Gyration_radius:  2.46620730398 Dipole_moment: 4.764
 S          -1.78815274833996   -0.73257488885310   -0.19549023382076
O          -1.06489530720318    0.50153466453025   -0.30381819714729
O          -2.17613305305299   -1.34338320939338   -1.42108951343387
O          -0.92671225573094   -1.72113394588955    0.64959690683035
O          -3.02332098193857   -0.54029571479377    0.70531453445453
H          -2.63991873565233   -0.15302427929308    1.53726902211125
H           0.04791755706727   -1.45658811019069    0.61603336840154
O           1.54508517522271   -1.06804629300660    0.64466591105726
H           2.10018159113605   -1.84876011621094    0.61068230153662
O           0.94987883888371    1.05915190500868    2.25019002921409
H           1.59930423975795    1.13733135231201    2.95114894015141
H           1.22162240913273    0.31005798807914    1.68765873772900
O          -1.60567576149001    0.17720974921527    2.75598380578482
H          -1.31164047435641   -0.70321269915224    3.00423055841646
H          -0.80137651388286    0.67188649205548    2.50388524628362
O           0.84765065018201    2.40672017456266   -0.29810384666871
H           0.99782402737673    2.31384355074394    0.65040393291040
H           0.02199013041269    1.92118478517245   -0.44807484001173
O           2.01485858814891    0.26451330417989   -1.42523224260709
H           1.73386100337834    1.15820579415271   -1.12462763486876
H           1.75063305809959   -0.53023668655434   -0.23165493333348
H           1.32973170102036   -0.00693801565638   -2.09125536562253
N           0.02898920094526   -0.41635914326952   -3.10832449430369
H          -0.73955756939084   -0.74892449573775   -2.52930444120301
H           0.17200047126398   -1.09524225249036   -3.84638113823844
H          -0.28414524101347    0.44308008047533   -3.54370643361462
