    26
        -50.45019489  Gyration_radius:  2.45229600366 Dipole_moment: 4.168
 S           1.75686244356348   -0.11226201996102   -0.91594153408559
O           0.37443480240917    0.22117208695007   -1.14813459801582
O           2.72406179574222    0.83127400968980   -1.35192110952946
O           1.97071132633334   -0.35647936115480    0.59857733249060
O           2.01956897918006   -1.49725532113166   -1.54891869961380
H           1.12756553284987   -1.90625616376841   -1.77811960503624
H           1.11195596457219   -0.57659065296473    1.07230729236163
O          -0.20011649294518   -0.78709272449557    1.90130228717462
H           0.02071883553388   -0.91344337216116    2.82571631737473
O          -1.83952010518557   -2.05199147523780    0.16422509034865
H          -2.19226443177733   -2.84638379485678    0.56822946917211
H          -1.24800505283285   -1.63227436742129    0.82070412382818
O          -0.37088973948862   -2.27450251197151   -2.10893759479414
H          -0.63080603899993   -1.48892905072901   -2.59834963043986
H          -0.90568029109563   -2.25147884940124   -1.28702235224672
O          -2.23695109711930    0.71151640004955   -0.63105478883391
H          -1.33047149959317    0.66381504841457   -0.97466311156239
H          -2.47328406641612   -0.20091704487685   -0.42817521917305
O          -1.00086185532842    1.57780788711137    1.59682726311458
H          -1.61055324421047    1.44954642309299    0.83784291447035
H          -0.55495096865640    0.19050956164383    1.82087867400431
H          -0.20989005947044    2.03993082352712    1.21944468675166
N           1.20136873679417    2.69648519640787    0.46948715526811
H           1.93018864393402    2.96597305714723    1.11960475471148
H           0.95739803138844    3.52032425063986   -0.06782755036433
H           1.60940984080541    2.02750196557182   -0.17608155741489
