    26
        -50.45115295  Gyration_radius:  2.42725143992 Dipole_moment: 2.782
 S          -1.06218154319554    1.10609176838880    0.94204405662959
O          -0.42619725321956    0.98456977666199    2.21413274871565
O          -2.03031168865847    2.12881264671726    0.73628009332817
O           0.05233620561680    1.23108129706775   -0.13575201656589
O          -1.74279471470329   -0.24602170444981    0.57665776792976
H          -1.12374100637916   -1.02536616499638    0.77764737239074
H          -0.46826195716771    1.64998635612461   -0.95291848484019
O          -0.14268765373700   -2.18662676379150    1.01743293996651
H          -0.52073690861894   -2.84599856132842    1.60197567912422
O          -1.44894855271061    2.09633096976710   -1.90194349249736
H          -2.07425390229491    2.42692202994357   -1.23984798448665
H          -1.80092737576364    1.22299424994244   -2.22595286998051
O           0.41316699586610   -1.21341435439972   -1.55878382403394
H           0.56453880685251   -0.36567444462433   -1.12235270620600
H           0.32289368529137   -1.85997224215377   -0.84747751237674
O          -2.11577132423316   -0.42191743104416   -2.24380031685253
H          -1.22410419609175   -0.82393227519550   -2.24792145149136
H          -2.46487233021708   -0.58457348143298   -1.36047669348846
O           1.57622428711637   -0.82019024803864    2.29571257371185
H           0.60279204825621   -1.72851469787912    1.54651040646141
H           2.19567974993959   -0.46234662980961    1.61560844700335
H           0.96099844699210   -0.09114248570772    2.49343362360469
N           2.92088567641082    0.30773145022723    0.22008522175972
H           3.03634401657926   -0.27209745088225   -0.60220372903850
H           3.79287480481164    0.79386854626012    0.38451421140280
H           2.20705568311593    0.99939983477747    0.01739592036893
