    26
        -50.44477114  Gyration_radius:  2.61771082393 Dipole_moment: 8.901
 S          -2.64257666801408    1.03814615414171    0.92940378125432
O          -1.97608584922411   -0.02254740691111    1.63901825788671
O          -3.64996160549192    1.75873387985783    1.61473554997708
O          -1.51580773571672    2.03056692529447    0.44379975099085
O          -3.19068450586273    0.50705526660996   -0.40603481924939
H          -2.42556486557836    0.00861668686039   -0.82845142590721
H          -0.65364450364356    1.79611890447337    0.87331217407674
O           0.87524765681523    1.46636740488665    1.38069828498108
H           1.10680744257300    2.01069855281139    2.13454954964232
O          -1.09031246354341   -0.60063524819914   -1.36108529791293
H          -0.42164236074738    0.10432168960434   -1.45320737072615
H          -0.67567356351943   -1.28130425736239   -0.80175859082007
O           0.78164796287711    1.42586702179802   -1.36372921524428
H           0.99043177888770    1.46077513161722   -0.41459831155356
H           0.19065139335848    2.16571683480545   -1.52433478491842
O           0.65057430131193   -2.32570138304392   -0.11629299308521
H           1.35862844213834   -1.91523495669831   -0.68555673823011
H           0.66546681088361   -3.26966626145715   -0.27629666363598
O           0.45862704426045   -0.91774241669839    2.22973342397749
H           0.59856097085174   -1.52467264488063    1.48204343862107
H           0.79503420387860    0.51810356606426    1.73076020758114
H          -0.50259219604496   -0.75404079135931    2.23486657111416
N           2.41916247129710   -1.08524868242884   -1.70439613433585
H           2.51487519615815   -1.47328136452846   -2.63464980161887
H           3.34808501739915   -0.95202045454113   -1.32461548484156
H           1.99074562458877   -0.16899215065415   -1.79791334793996
