    26
        -50.46854132  Gyration_radius:  2.40493182293 Dipole_moment: 4.511
 S           0.62579331508327   -1.70983139647219   -0.23277588233005
O           0.88420940490857   -0.85413784564752   -1.38777449179877
O           0.24079420421284   -3.04617563635061   -0.55834337762409
O           2.04755351258971   -1.81838437751921    0.51897457797227
O          -0.20911492098966   -1.03712428482566    0.75149010755638
H          -0.75774697991938    0.32596634523958    1.49253197232828
H           2.38174804594821   -2.65273741920331    0.20664622852173
O          -0.95418457092322    1.16949950254722    1.95374088755091
H          -1.69475794086171    0.99115584489060    2.53515922468250
O          -2.38288708408035   -2.02983494682066   -0.48634214510561
H          -1.72019931966036   -1.72363212681370    0.15102305595457
H          -1.99231006661793   -2.82195133080323   -0.86682928182358
O          -1.60066226929989    0.18864140685065   -1.89249916890733
H          -0.71436560984045   -0.20488948200745   -1.91409229477944
H          -2.16585586452838   -0.49900172412468   -1.49909430063561
O           1.86468446717877    0.77398409980484    1.83480880996521
H           0.98727949661890    0.98322512482577    2.19015299467607
H           1.84938289816764   -0.16525531098338    1.61006097005281
O          -1.04575719369794    2.39765261659831   -0.51111773419936
H          -1.20513820057536    2.13080007920985    0.41092170011188
H           0.44152807992710    2.06961002846070   -0.64047256483952
H          -1.41696229626762    1.67449182571139   -1.07164412669058
N           1.42230576186415    1.60788168223219   -0.65886144666990
H           1.74745854422823    1.46712276853158    0.32970387665265
H           2.08425913186520    2.14289814160341   -1.20896655058108
H           1.28294546480544    0.64002645525939   -1.05640106939288
