    26
        -50.46862845  Gyration_radius:  2.47517989941 Dipole_moment: 4.028
 S           1.93726619004045   -1.01353223647148   -0.51663476530980
O           1.32644792116915    0.05844787389912   -1.32123853697153
O           1.89420313818666   -0.69671660088019    0.88463812530368
O           1.40806574605227   -2.31364436114942   -0.87310160889738
O           3.46514901049274   -1.04432845441009   -0.94880330016023
H           3.43268965871602   -1.63528340717534   -1.69370774347945
H          -0.04565399278280   -2.30212230496684   -0.18441365205924
O          -0.97158957293574   -2.23706581983761    0.15668909366812
H          -1.18751476766778   -3.10369988828802    0.50541878573835
O          -2.14711287707823    1.59557397992402   -0.53312965738422
H          -2.88848093812760    2.01151836409117   -0.97319760274863
H          -1.86895532048325    0.82412668577709   -1.11110216799223
O          -1.24953203963413   -0.42215381728117   -1.90042170022187
H          -1.39904009767176   -1.19107620869710   -1.32919530326817
H          -0.28328812700267   -0.27672958094608   -1.86293736071460
O           0.60667414538060    1.02198299498547    2.46192818101421
H           0.54830730821622    1.75667315435307    1.14961688254171
H           1.21275429364729    0.32497468828411    2.14818881532919
O          -1.70886715903652   -0.07967686560063    1.73674994470106
H          -2.04856508220489    0.52864238646377    1.06652995492179
H          -1.43971332887414   -0.88008070619337    1.25420871955787
H          -0.28421003416385    0.60065235968723    2.43768232096860
N           0.45209729492346    2.07833507601610    0.11042657306798
H          -0.55727913913738    2.11879652735511   -0.12720098114384
H           0.88502224886558    1.31061213649199   -0.47871501060642
H           0.91112552111271    2.96577401457060   -0.05827801585670
