    26
        -50.44656360  Gyration_radius:  2.47702989399 Dipole_moment: 3.344
 S           1.12482650895677   -0.30694314349804    1.99379530200205
O          -0.31791157363177   -0.36275300145496    2.03792089556949
O           1.81309552949466   -1.50757686047577    2.30133442005792
O           1.53311558565114    0.16054576319165    0.56196243884398
O           1.60732367271301    0.87599878485747    2.84618035754477
H           0.95988686202598    1.61285934179477    2.65316298859893
H           1.53043485863415   -0.68042017554772   -0.04665326560582
O           1.33180245783522   -1.97871852114017   -0.72415031848342
H           1.81129802023535   -2.59684959183489   -0.16538886194257
O          -0.23244096174218    1.79085854629994   -0.75051998717005
H          -0.08464460922468    1.52371956444535   -1.68363147737626
H           0.45829558482601    1.30311116577605   -0.27571041251162
O          -2.37349061006100    0.11931093888706   -0.86484851670733
H          -3.08052163634560    0.39762376543956   -0.28136815990816
H          -1.65885085331526    0.78758978878521   -0.78368741228158
O          -0.39250534951557    2.31374863080364    2.05435839994557
H          -0.81881725009022    1.44242416699185    2.08654012178272
H          -0.37578826777717    2.56643546847098    1.12092828499905
O          -1.10610229687067   -2.06557205004027    0.08741954720220
H          -1.64693839679101   -1.40680407537606   -0.39716509836502
H           0.35256381723451   -2.11991369165919   -0.51350244497772
H          -0.94421219758354   -1.64715499549737    0.94933888547028
N           0.13547211430769    0.17875075866503   -2.90509006946636
H           0.74984840294287   -0.52739108165744   -2.51425027414207
H           0.42255704844960    0.34302530333067   -3.86176325303218
H          -0.79829645034404   -0.21590478954728   -2.92521209005413
