    26
        -50.45359491  Gyration_radius:  2.53361635803 Dipole_moment: 7.249
 S           1.09161476484271    0.60059646917285   -0.32871822689508
O           0.85732695164766    0.18396268452727   -1.68580302584852
O           0.12914844449856    1.52075731988470    0.20689249722129
O           1.18048014090882   -0.64827639070425    0.56803060428410
O           2.49042181671529    1.19543971460010   -0.19521382336506
H           3.08512004335099    0.57358959983721   -0.77202747215055
H           0.29186170637201   -1.17286051872422    0.59735823142276
O          -0.99475199049441   -1.91599558808700    0.64387861143554
H          -0.90270636765708   -2.68246042794106    1.21327770094862
O          -2.61586857947952    1.28136880230941   -0.32096039858955
H          -2.52504397533266    0.60930111805745   -1.02454449958464
H          -1.72280615030561    1.63154621746325   -0.20051049047962
O          -1.71301355511125   -0.76057265038363   -1.87891644772384
H          -1.63305933047482   -1.42421310303436   -1.18386518834459
H          -0.81938097306055   -0.40636461038163   -2.00699343569033
O          -0.60036558070131    1.36995061767175    2.80102021115115
H          -0.23887889812674    1.46092869159261    1.90028901352562
H          -0.89512863521492    2.24514967551502    3.06017990335412
O          -2.52149282971117   -0.27859799316434    1.82227713293702
H          -1.90214552843137    0.24755855308194    2.36590285776014
H          -2.76437674401941    0.31809834428140    1.07126368742790
H          -1.65344321845049   -1.28282861809413    1.13174082191754
N           3.58020264649962   -0.48799764312698   -1.76468383173958
H           4.27008954779040   -0.21639545725405   -2.45240352132796
H           2.67421559324897   -0.59095375557803   -2.21412902022140
H           3.85198071067464   -1.37073102151439   -1.35334191143900
