    26
        -50.46657991  Gyration_radius:  2.42905189131 Dipole_moment: 3.728
 S          -1.94578365243401   -0.26063774689304   -0.50134261775016
O          -2.04665714667492    1.17937991301555   -0.62402914971811
O          -1.74656882434020   -0.95142199978484   -1.75080221635915
O          -0.97653924395930   -0.64434166554232    0.52972576684202
O          -3.33495343549564   -0.76774679690940    0.08693856963454
H          -3.94252219273118   -0.65153478565722   -0.63675902308221
H           0.06396117681682   -1.68592115882575   -0.40184001929974
O           0.67238168336380   -2.11804528763529   -1.02665193008645
H           0.12904524997290   -2.27056605491141   -1.80509564015924
O          -0.46826592155599    1.77868924232237    1.50421636147924
H          -0.96048928290346    2.34813360686665    0.90456894579783
H          -0.76927913669589    0.88214652146325    1.24840343364967
O          -0.06467337386734    1.09029562910980   -2.38330941195308
H          -0.73134474703522    1.42887259881835   -1.76107669365993
H          -0.47223834480381    0.26957502509359   -2.68951477560540
O           0.82604782596599   -1.24046120296791    2.48526968620206
H           0.13840543529193   -1.23551655766628    1.79733210259667
H           0.37227648298414   -1.06381772746370    3.31152884710194
O           2.14938001066293    0.09404588111309   -1.26762612449383
H           2.11733044995519    0.54210077177778    0.15647358634742
H           1.79909625044292   -0.82504916865639   -1.22908698209369
H           1.45353755447504    0.59212745329128   -1.75331048111273
N           1.99706963223716    0.82649211227297    1.20470427638644
H           1.78203761947247   -0.03619584047210    1.75242770981011
H           1.13650231573659    1.42203603119684    1.29133917628584
H           2.82224362515730    1.29736120706241    1.55751660323547
