    26
        -50.46215074  Gyration_radius:  2.51034244875 Dipole_moment: 3.334
 S          -1.19809037012187   -1.56833818812237    0.84228584674926
O           0.03642703720833   -1.82433136673207    0.10599912951616
O          -0.95150413131431   -0.97709232705754    2.13984103776951
O          -2.16057200578386   -0.83400842280010    0.04128010272156
O          -1.84200747332253   -2.98834768432545    1.12584705187873
H          -2.08072381082872   -3.32298613579889    0.26604958145284
H          -1.60201655538675    0.69540082364611    0.48675482079175
O          -1.25772708205830    1.58115385302730    0.71774369758492
H          -1.56114204321676    1.74028841598204    1.61361342418683
O          -1.83284227560434    0.72540102587371   -2.18000215092355
H          -1.73118682207290    1.55280151239742   -1.70160996062308
H          -2.14190365404449    0.08689887662410   -1.51663207265846
O           2.30453543883342    1.28348871235898   -1.59842760269550
H           2.34411986478475    1.88087878315017   -2.34578955801425
H           1.70477751782312    0.54075860522783   -1.87450280329785
O           0.56167089996793   -0.57136623580361   -2.25412136292677
H           0.39365066850394   -1.12462115631519   -1.47304236788362
H          -0.27883506271737   -0.10105898880565   -2.42154401476605
O           1.43893628239885    1.90416344465213    0.81306127079871
H           1.61890998732834    0.55634458565041    1.40102496671732
H           1.81189649933823    1.79077099674614   -0.09496071730685
H           0.46676187476093    1.93410279176302    0.70525893443993
N           1.55874724324331   -0.48669276922727    1.74420487696923
H           0.64459573050797   -0.60322016333211    2.24668353421314
H           2.36122568485753   -0.77499956582369    2.29233066037286
H           1.39229656689044   -1.09538940293251    0.91865365490301
