    26
        -50.46215075  Gyration_radius:  2.51028823194 Dipole_moment: 3.333
 S          -2.06002363027952    0.41469948420449    0.43516628884859
O          -1.06434954096721    0.17576611418407    1.47598160023016
O          -1.87722078868040    1.69353210595174   -0.21687335144253
O          -2.15277021855815   -0.70144992926696   -0.48835584733644
O          -3.45790926978065    0.49943948203686    1.17689922068706
H          -3.60351427055629   -0.37703817555767    1.52163954405425
H          -0.95395714398937   -0.13951350431489   -1.53563445294599
O          -0.23615864958011    0.16774698345754   -2.12457819938768
H          -0.61790996815781    0.89110258629399   -2.62556447221007
O           2.94631330574372   -0.71773314680233    0.56549510539048
H           3.52639238255519   -1.42250534276060    0.27598378944187
H           2.12832296629720   -1.16285503800758    0.91247837611268
O          -0.39139018293067   -2.71261409905515   -1.05947798549845
H          -1.18006583510004   -2.18143399218198   -0.86167013781516
H           0.03916839639016   -2.25800846958642   -1.78867478015081
O           0.70642395298575   -1.88483063282626    1.29232464626467
H           0.04405538149464   -1.19589840247150    1.46860918773836
H           0.38210428863483   -2.35655182654188    0.49993325101431
O           1.99260887243322    1.20439544548330   -0.96596417393295
H           2.45769124808231    0.49308141244876   -0.46177307778833
H           1.29423749649166    0.75674717371590   -1.48519768051606
H           1.18615900038781    1.86471888698661    0.08636975714739
N           0.43919318272215    2.20056311918787    0.82043205303039
H           0.73799345526712    3.00804291582808    1.35545437260963
H           0.17941227771572    1.39166140454840    1.41879758093056
H          -0.46480669856417    2.34893544507152    0.30819937556289
