    26
        -50.43794639  Gyration_radius:  2.52527936605 Dipole_moment: 5.575
 S           0.20129985957118   -0.32238536061160   -1.83321092739456
O           1.42691370172509   -0.98094716269893   -2.16530147836325
O          -0.69521645279774   -0.98684182965914   -0.95367905397031
O           0.47119908506543    1.11433265779043   -1.38137089758279
O          -0.56105873360920   -0.05113456475992   -3.19278876466970
H           0.11729270734940   -0.00355807618420   -3.86236671254052
H           0.92679235285066    1.15268659408032   -0.42245205398909
O           1.54742395562792    1.21129654412959    0.84286453979918
H           1.69293780662537    2.12848970285019    1.08420291963296
O          -2.26630089201854    0.01830556638479    1.10560028619513
H          -1.86932819326802   -0.66593000415326    0.55017786663100
H          -2.49745401351514    0.72336965698162    0.47441088213396
O           0.88054857210036   -2.21571882352884    2.30822132795031
H           1.43842957428295   -2.05182283390309    1.51850413091350
H           1.44565747504470   -2.64563029147314    2.95155901596427
O           2.50742683677041   -1.39898414540876    0.31489135242279
H           2.21561033807002   -1.44006081809659   -0.60786526519364
H           2.51005095648657   -0.46311893584033    0.55012270661420
O          -0.05306531202638    0.28749473904969    2.51866136456851
H           0.21826687120334   -0.65564026743710    2.57901153101700
H           0.86292319826763    0.82723006500830    1.56303570135881
H          -0.94661086207763    0.26002606283407    2.09229711936707
N          -2.46057309949535    1.49844706853845   -1.24423520304743
H          -1.73902300393815    2.20193930584423   -1.34208152823898
H          -3.26845857584332    1.80510348195765   -1.77235653032743
H          -2.10568416244333    0.65305165828330   -1.67585230923113
