    26
        -50.47206947  Gyration_radius:  2.39728273875 Dipole_moment: 3.373
 S           1.73543193132705   -0.42398970539961    0.15066742178168
O           2.85456343862741    0.32060358971355    0.64925916622658
O           0.83175364131338   -0.91359367712153    1.17841687239720
O           0.99574217146843    0.24190754052806   -0.92017256716929
O           2.35301348163009   -1.73125833286539   -0.54784393764707
H           3.26830789737621   -1.69299712530188   -0.28959818087613
H           0.21975339660144   -1.20476537998158   -1.32457527341859
O          -0.34156077892976   -1.96333741271182   -1.58158701597336
H           0.24712610092867   -2.71996810074773   -1.57921278683691
O           1.34411849065144    1.19341972236598    2.75869643450157
H           1.04132621069298    0.30789291641573    2.50004580629057
H           2.22260543817616    1.25135133727934    2.36167141228878
O          -1.27513250706413    0.60460554527561   -2.47783688568518
H          -0.36730890964935    0.73552957673848   -2.16265873432530
H          -1.33728892418306   -0.34426689237362   -2.63812524807410
O           0.04697216368268    2.22566975893105    0.67277403698290
H           0.44227947907281    2.02959042861859    1.55306488290820
H           0.55785686297093    1.69325416357077    0.04178540815904
O          -1.71613310992814   -1.45999857989684    0.72323655272182
H          -2.11238104387350    0.02498102383014    0.38804234525406
H          -1.52518900129017   -1.86078277865556   -0.14314191675603
H          -0.82066348841157   -1.32535178588310    1.09848584874443
N          -2.18874531354643    1.02042185262063    0.00451527381743
H          -2.02348354632980    0.95472094651638   -1.03138897083052
H          -1.37252504675350    1.58708610403469    0.39238382141821
H          -3.08043902459204    1.44927525448325    0.22309624406101
