    26
        -50.46832489  Gyration_radius:  2.56122532152 Dipole_moment: 4.115
 S           0.63935474354567    0.02182607717827   -0.99218432454207
O          -0.61377958993394   -0.18209209217199   -1.70271069237966
O           0.49795768627260    1.08292722865625    0.01973508825395
O           1.14539192186134   -1.19741961628494   -0.37607404446038
O           1.71740390869828    0.47650184707295   -2.00369064949187
O           2.22467129363279   -1.70982174954651    1.95635931801540
H           2.10315605619431   -2.65295639649899    2.08190252639708
H           2.00417163854389   -1.53427696794803    1.01221224204887
O          -1.28130774913156   -2.21727532136288   -0.08508823472654
H          -0.31017053358875   -2.14025558741085   -0.10157388263978
H          -1.52858090972345   -1.63020567934833   -0.81485345493757
O          -1.40090039039841    2.31502143633421   -1.48026199571956
H          -1.37316448125642    1.34954161429513   -1.64012738892219
H          -0.84204176847680    2.41445986016923   -0.69921217218484
O          -2.00339165278299   -1.07704959320287    2.17007063945232
H          -1.78587879085359   -1.61321099516437    1.36032745732937
H          -2.77702536048506   -0.55944095010538    1.94082843974175
O           0.53193229665641    2.40662696879372   -3.28715023668184
H           1.34347096657023    1.25092851106076   -2.50640360934886
H           0.16497456145422    2.02498461785739   -4.08760432382860
H          -0.23430099324671    2.56230102516302   -2.68009569461147
N           0.35428491342738    0.13182692734422    2.41522926342792
H           0.44439543356240    0.59125082977816    1.44739695582887
H           1.09966444096268   -0.60739700114539    2.44710537872591
H           0.47702333436200    0.81396350752695    3.15526461369066
H          -0.59731097585748   -0.32075851107035    2.45059882151332
