    26
        -50.44850701  Gyration_radius:  2.46582967103 Dipole_moment: 4.349
 S           2.09799048868350    0.38955812989546   -0.22701577952005
O           1.46315152182201   -0.25106979739226   -1.35420742504407
O           3.51047783589155    0.38420488237886   -0.18119083566489
O           1.54362765713771    1.84987224239726   -0.17991482205247
O           1.54746948479363   -0.22915661930208    1.07788036707158
H           0.58949672299090    0.09868284871222    1.27371287958952
H           0.74557890337352    1.82588084571112   -0.78599285823230
O          -2.09746579940391   -0.22979325495875   -0.69566630574311
H          -2.99343537227782   -0.47210960638188   -0.93063675658733
O          -0.76039291938629    3.19781761289726    0.76401731062442
H          -1.00127303889136    3.16074037879396   -0.16727467924592
H           0.18573435159135    3.37015646986524    0.79220370008607
O          -0.48276045437820    1.62116861813991   -1.76896499226163
H          -1.16115594377276    1.01954107839655   -1.38456344391808
H           0.02739459743448    1.05902311036801   -2.36355990723931
O          -0.79895340458105    0.59158685322445    1.51746253348389
H          -0.83280912165693    1.56563836767699    1.40967401455828
H          -1.38252327324690    0.23051544664229    0.82240958134929
O          -0.46219126888286   -2.13547419386574   -1.17934977326037
H          -1.51195994821302   -1.03109117831953   -0.91160676254387
H           0.31585306121062   -1.58642120922631   -1.38474983872584
H          -0.24926282028964   -2.55970024392794   -0.31435235946337
N           0.30691552482856   -2.95324163708187    1.29720345233154
H           0.80031080691488   -3.83044014421762    1.40464213749502
H          -0.37503525016683   -2.88620770602795    2.04249902808617
H           0.97521766860865   -2.19968128410986    1.42734155532724
