    26
        -50.46836942  Gyration_radius:  2.48056059579 Dipole_moment: 2.826
 S          -0.01382503372309   -1.23405196398322    1.88230032715866
O          -1.26195196689209   -1.44841839012162    1.18643224689069
O           1.11069587739395   -1.13551160534056    0.95072670490329
O          -0.06569659305151   -0.14303327633420    2.83307138636379
O           0.28441653246706   -2.54301416919353    2.73209571145559
H          -0.31574716282857   -2.43200035675910    3.46131372976136
H          -0.44244182406257    1.13981596539494    1.95429593947360
O          -0.59379222341149    1.93383409317331    1.38160317330393
H          -1.07424357800917    2.56328220588061    1.92206477735016
O           1.89274814080581    1.37149263298187    0.36036750642419
H           1.78949263781412    0.45205300963318    0.67279558517521
H           1.14476768389044    1.84317010308122    0.76074032224882
O           1.25674757560579    1.16958610229709   -2.14923922759575
H           1.55898477773001    1.30309227846795   -1.20144395785762
H           1.88492472715982    1.63473976610112   -2.70193633705606
O          -2.07783292034523   -1.07522869451875   -1.31427117089805
H          -2.02941757897034   -1.28473850572558   -0.36041686531444
H          -0.62450315613139   -1.33150687095592   -1.58781233217617
O          -1.42711998869418    1.50983430048524   -1.22750512725609
H          -2.07094989077783   -0.09060101500090   -1.35145484651889
H          -1.22177970597709    1.67671573167478   -0.29178456338813
H          -0.57960449730080    1.54186719488909   -1.69144415019463
N           0.46834104446659   -1.36984738306403   -1.58549464094831
H           0.82621984422018   -2.18479841613706   -2.06954615861627
H           0.75324479281308   -1.37828411994202   -0.56591856255241
H           0.82832249579375   -0.48844861698963   -1.99953948015479
