    26
        -50.45646072  Gyration_radius:  2.53572950395 Dipole_moment: 2.909
 S           1.63419464356316    0.29747246402406    1.29580653706666
O           0.46933614764895    1.15377843934735    1.03898129537443
O           2.87837453848905    0.95815573884887    0.99127788722712
O           1.61883801793287    0.01808725303319    2.85830629012836
O           1.48327711774454   -0.99402625041749    0.65772596790035
H           0.04846230412043   -1.67212995079026    0.56767185556023
H           1.94634035494633    0.82909131769879    3.23571027606363
O          -0.85526100718248   -2.06639923964190    0.45124402157093
H          -0.74356464596237   -3.01474324271635    0.52813840174830
O          -3.43202212117222    0.70627047134781   -0.46519301311055
H          -2.94867810068832    0.63258151638417    0.39405163573782
H          -4.32785178616780    0.41358697859197   -0.29612233339652
O           0.20071159737394    1.21378081736256   -1.48221649853218
H           0.22044059118268    1.32177968813846   -0.47550050035184
H           1.19958101664701    0.81922697534832   -1.69135938113414
O          -1.96426600033978    0.17115915220896    1.68923642997084
H          -1.12570851056044    0.65337075425971    1.57478254297549
H          -1.75089342493004   -0.74540134916630    1.46121531666821
O          -1.50980723708179   -0.59930183606870   -1.74384370187772
H          -0.51539888888161    0.45634937836586   -1.66741812662772
H          -1.29717901332985   -1.22454753128356   -1.02165191332681
H          -2.31401359945906   -0.11913399957922   -1.43382269064461
N           2.53249864070648    0.29850115193800   -1.67480492035561
H           3.18565995814041    0.60373111137791   -2.38525714769457
H           2.50472501265443   -0.71361842693880   -1.65573561237382
H           2.86220439458952    0.60237862833101   -0.75122259856061
