    26
        -50.45451337  Gyration_radius:  2.51569298858 Dipole_moment: 6.063
 S          -0.67120104511410   -1.19285024969334   -1.68235316794736
O          -0.66389358275065   -1.43107588595146   -3.09145666785130
O           0.60281966026840   -0.81300858311037   -1.09406716476383
O          -1.76975730538297   -0.35455602145356   -1.21420932882330
O          -0.95419046908338   -2.63827417962001   -0.97837328038700
H          -1.55922494403166   -3.06672512246530   -1.57786476707118
H          -1.66307030055661    0.57183863784787    0.09636867300370
O          -1.60182283961576    1.20327227832235    0.85733776705892
H          -2.43866980393666    1.66960754274955    0.87979817713643
O           2.26771564369884    1.10649198995570    1.54124940440327
H           2.83996549859603    1.82319325654245    1.81761330992916
H           1.78869147647004    1.44660679735130    0.74417593873254
O           0.74280284795837    2.23431963640574   -0.30283423961445
H          -0.10778143522334    2.03715497835199    0.11814409714251
H           0.63736277120055    1.94241111257971   -1.22237731838334
O          -0.29816655675602    1.36044982780404   -2.75505166608128
H           0.03900197687873    0.70677299068028   -3.37276309809199
H          -1.02671242528994    0.91657933722602   -2.30179433861964
O           0.08524654620537    0.19625436784148    2.73057569118012
H           0.38808340100799   -1.04617624216379    1.95206305331187
H           0.92066606302440    0.65163961373638    2.46902616105518
H          -0.60953145606304    0.62102566448469    2.19268259337325
N           0.69255177474183   -1.82617559288890    1.24880628697307
H           0.01595385958041   -2.58183432341222    1.18546244352166
H           1.61489373840437   -2.17481294571094    1.48923927146653
H           0.72826690576854   -1.36212889538480    0.27060217934277
