    26
        -50.44328693  Gyration_radius:  2.53823688677 Dipole_moment: 6.266
 S           1.29446155891250    2.05548090862832   -0.75165252317703
O           1.36645452568632    0.89878445002479   -1.59922894350345
O           1.43537974805818    3.33044556838386   -1.34946368780203
O          -0.07098899935956    1.97390832796412    0.03507218775875
O           2.29283403929007    1.91605395671208    0.41715873457574
H           2.19518782272842    0.99909350784236    0.81493419667902
H          -0.76550870121845    1.53614535420443   -0.53542847372661
O           2.03045398410709   -0.45514300884151    1.41529494138658
H           2.84918466408674   -0.72395116770183    1.83542954352806
O          -2.48209963297449   -0.75891059345706    0.97124050485871
H          -1.71763682234990   -0.42344998023802    1.50873074076710
H          -3.24645338038876   -0.72335288433623    1.54809746901523
O          -0.46436911729531    0.34860526618188    2.25884351543344
H           0.38145631790753   -0.11464035933506    2.15245200784871
H          -0.37154013519324    1.14721513233965    1.72017410654692
O          -2.05836939363446    0.81873652657626   -1.14913184082705
H          -2.76922995108758    1.45866134019970   -1.22010996301909
H          -2.29400023638417    0.19994447681408   -0.41696366207273
O           1.84721063556797   -1.62454813729467   -0.82671649650628
H           0.92167142216162   -1.96138950587717   -0.92954505555255
H           1.83736802582525   -0.78687145584991   -1.32435300120344
H           1.95613835974119   -1.00580624409637    0.55269479706565
N          -0.77752781709062   -2.06360426972861   -1.21704476512360
H          -0.91204760607571   -1.21595159818274   -1.75753296983121
H          -1.35517944378133   -1.98461258254658   -0.38753693286723
H          -1.12284987722658   -2.84084304837723   -1.76541445026184
