    26
        -50.44328674  Gyration_radius:  2.53824883594 Dipole_moment: 6.269
 S          -1.16274901700667    0.52304390582051    2.20036122175161
O          -1.83233148468829   -0.38482868874950    1.31218106058794
O          -1.39308215699297    0.38878711760755    3.59014405932125
O           0.38196155671377    0.42122071282227    1.89490688919398
O          -1.43230178640727    1.97982400558531    1.76728228478207
H          -1.28815411546131    2.05308988840555    0.77615017561551
H           0.61155632689841   -0.51010101556789    1.61332448213455
O          -1.06670037468413    2.13939025345595   -0.78784459364400
H          -1.58762530279757    2.85966492446016   -1.14691448980704
O           2.47690389604081   -0.69041329586558   -1.02725938963230
H           3.42320712860315   -0.61764142185030   -1.15963692551589
H           2.15603341477872    0.22921105334064   -0.83455101738879
O           1.59795348196528    1.67806746203617   -0.26968280567192
H           0.75702263405959    1.94061785899209   -0.67611842559628
H           1.36701198163355    1.46047191975556    0.64458762157336
O           1.28266940226932   -1.85629954546106    1.06540991218850
H           1.94764892711580   -2.15221678167101    1.69001373482020
H           1.75892159345589   -1.51733731400624    0.27001318931239
O          -2.23300598694648   -0.04833582596048   -1.31875813570668
H          -1.52750672571487    1.27369875661996   -1.08936856621221
H          -1.55449626456242   -0.69915304603558   -1.62959689214475
H          -2.34933415962257   -0.27745950904886   -0.37887899464626
N          -0.27982402515409   -1.86281560805604   -1.67595424514050
H          -0.31147045474148   -2.19137147287981   -0.71695905725102
H           0.64409023972445   -1.47432134518912   -1.82909979066339
H          -0.38639871847315   -2.66479296855134   -2.28375132225062
