    26
        -50.45060328  Gyration_radius:  2.45466473243 Dipole_moment: 6.059
 S           1.14873483881533   -0.94537086829614    1.25012216003396
O           1.01258010316285   -0.49112385607270   -0.11031370098653
O           1.49530824298959   -2.32346053928533    1.40208281141403
O           2.14432592703785   -0.04977490669576    1.97570660993735
O          -0.18591932177949   -0.66208505407036    1.99711776795059
H          -0.93957006832053   -0.46209490018920    1.36643181869207
H           1.99342133471903    0.92116997864014    1.54942880738295
O          -2.17411883291241   -0.13352343303017    0.44743222486784
H          -2.95487421083191   -0.55090848033789    0.81516433066852
O           0.12601356477742   -3.20332496553786   -0.76436438298146
H           0.58597496311393   -2.97759464649967    0.06387137867579
H           0.81846750364930   -3.36300712371464   -1.40892977979786
O           0.04576501030652    0.78616078935629   -2.25336913866522
H           0.57900049906138    0.31904072221067   -1.58972064969087
H          -0.37692777136328    1.49985654533086   -1.75946918304779
O          -1.07869940475093    2.31486059338818   -0.07091946630016
H          -1.49615953808069    1.46282796593320    0.15290526430320
H          -1.77436257754477    2.97389574986978   -0.04699070494623
O          -1.60070042807711   -1.31609993770205   -1.71386626939140
H          -1.03139994470353   -0.63811763113312   -2.13449114646914
H          -1.00288202637478   -2.03556914951196   -1.42320649167015
H          -1.97727120906478   -0.62420329962086   -0.43867499202823
N           1.71106145570275    2.16710787011056    0.82599465500294
H           2.00029765782167    3.00761883681457    1.30911155472975
H           0.71715857390107    2.22788537343938    0.60779221437330
H           2.21477566875114    2.09583436660863   -0.04884570204840
