    26
        -50.47068272  Gyration_radius:  2.47658765372 Dipole_moment: 4.022
 S           0.40720284776792   -1.03330624451224   -1.02344675889238
O           1.37781529634267   -0.49662669641768   -1.95108915413413
O           0.86551796527181   -1.00584886594574    0.35623379921601
O          -0.87795621804259   -0.32180013199476   -1.15447192502010
O           0.12159547608661   -2.53161297658696   -1.36289364968679
H          -0.11932149900582   -2.51079466494277   -2.31128258208186
H          -1.70818052546849   -0.86195581623057    0.26829585927828
O          -2.00185962973905   -1.08485301854545    1.17053779019588
H          -1.37077357697597   -1.73327077517463    1.49140836204948
O          -0.36145785120849   -1.46829710496284   -3.72945540716778
H          -1.11252504046942   -0.94026090377607   -3.44285984420169
H           0.42633184289566   -0.99169470391652   -3.41439520654443
O           2.15618133513686    1.30541812569578    0.05530350380434
H           2.47384553391779    1.23062129876013   -0.85002427009050
H           1.85325962886233    0.39845676966838    0.26154588032714
O           0.99756302394738   -0.01675991014737    2.88446624294929
H           0.94401454626417   -0.52682388207483    2.05845056840625
H           1.83092176414463    0.45659588944070    2.84748001486912
O          -1.33904905643606    1.20717568214539    2.40128800199060
H          -1.80605642499376    0.40257593104084    2.08339829329440
H          -0.52169876161849    0.85500155735569    2.81274294132229
H          -0.84434109324632    1.76272866540945    1.09837249304849
N          -0.44980418731867    1.96826275632934    0.09785367067949
H          -0.81013374041746    2.83756168599948   -0.27968924324737
H          -0.72836743315582    1.14383998174403   -0.49498777729450
H           0.59727576747883    1.95566738166458    0.12721840695337
