    26
        -50.44807942  Gyration_radius:  2.45659571218 Dipole_moment: 5.720
 S           0.66736015823347    1.35887261299599    1.13898754446521
O           0.24548737888577    1.36373967991275   -0.23343559480878
O           1.87049543228054    2.03865998291300    1.46046194207546
O          -0.49238616311801    1.93177140668887    1.99970863421573
O           0.78967447471378   -0.10245952304135    1.63626375190858
H           0.05410657708371   -0.68701065497917    1.26374039877744
H          -1.33735929227789    1.54874227457014    1.65063246223123
O          -1.12213630614227   -1.56165544249887    0.78166230282541
H          -1.05642107543016   -2.45181748285941    1.13082852181233
O          -1.95825199903173    0.75730799081526   -1.72302333287492
H          -1.13913059755429    1.10700670258416   -1.33577104153164
H          -2.62373899660088    0.87215942568476   -1.03908550897638
O           3.38231297083721   -0.04261995112367    0.45371344133525
H           3.03892375309065    0.81639388995950    0.73607685603722
H           3.34611648057164   -0.60046404589687    1.23319685565609
O          -2.61107075910907    0.62936426674829    1.15137736815432
H          -2.19120404977371   -0.24372196925482    0.99641911077092
H          -3.24394816173362    0.51729261618191    1.86385793488700
O          -0.79427913442642   -1.68334688471363   -1.68900663405930
H          -1.31319070449409   -0.89294487109746   -1.94488426263317
H           0.15944678958185   -1.40750538622373   -1.81950445877288
H          -0.98406385703628   -1.64965473108385   -0.26465409763287
N           1.62367924767970   -0.60569591656040   -1.87427144392026
H           2.07352324667644   -0.50113735572894   -2.77559517362397
H           2.35091184796904   -0.81726932382085   -1.19605840504654
H           1.26514275903692    0.30599268993195   -1.60163720127217
