    26
        -50.46329461  Gyration_radius:  2.58288834623 Dipole_moment: 2.497
 S           0.60006497712648   -0.08849975068068   -2.15743095526964
O           2.03390063798780   -0.10499749764173   -2.33794977253939
O          -0.01928892092824   -1.37670466285771   -1.99934989860224
O           0.21587582516814    0.80945384228746   -1.04717345564278
O          -0.00908853418547    0.57993090101610   -3.46264003327220
H           0.69461278518455    1.13815752666594   -3.78059018854830
H          -1.22666890915008   -0.09390390480536   -0.64324127635235
O          -2.01511697864139   -0.52699760941546   -0.26594992023404
H          -2.11297124913564   -1.32277784372853   -0.79459614649603
O           2.27209821436113   -2.21414624341925   -0.76851375182283
H           2.48771626178155   -1.50784380760979   -1.41066929808913
H           1.43801809747676   -2.56296048446629   -1.10925161365631
O          -1.57926642527398    2.29619178550341    0.39891726195544
H          -0.86048848204083    2.00748761801873   -0.18503183864000
H          -2.29132072029226    1.66801816768544    0.23788807753980
O          -0.74611462773726    1.59336106969399    2.84740365427258
H          -1.21612241440687    2.11722693093139    3.49657448397706
H          -1.01268813256749    1.94434407976330    1.96581849453853
O          -0.90408191397730   -1.00335530461287    2.16551861595803
H          -1.46202982374903   -0.92978371168279    1.36298482871277
H           0.49611840320702   -0.79406854511339    1.55204000523293
H          -0.96698552545797   -0.13143073012778    2.60516787099541
N           1.35863785287028   -0.45644822683296    0.99512012692355
H           0.99602820479771    0.19636811843787    0.26040443030523
H           1.81276423014091   -1.25337821746709    0.46878868489517
H           2.01639715700148    0.01675649019510    1.60576161377255
