    26
        -50.44980540  Gyration_radius:  2.48743973659 Dipole_moment: 1.701
 S          -1.63033410101261    0.44915635130200    0.76703423102791
O          -1.65228582061652   -0.45378245648718   -0.36039988637575
O          -2.45636076137317    1.60003018938846    0.67865388897712
O          -1.97927346718621   -0.32844628243153    2.05092561758926
O          -0.16677053069351    0.89240509596710    1.00720863530712
H           0.53949023726818    0.38681969459187    0.43373680515670
H          -1.35779630017391   -1.11644764218863    2.08843939657484
O           1.63489640862043   -0.26129714197032   -0.32196185234125
H           1.74595242088637    0.36790732486245   -1.07929350109664
O          -0.22133857458005   -2.18883512485653    2.13160706700159
H          -0.29268040249928   -2.82623006166535    2.84463981821381
H           0.63059075412887   -1.70302359571976    2.26416749965046
O           1.92001773378224   -0.63584413812777    2.39650335536334
H           1.49760907310586    0.21242043935875    2.56178072949367
H           2.19488635478893   -0.60833390133813    1.46712032967808
O           1.57876955711318    1.53806731767174   -2.24326151313040
H           0.60035883449959    1.71413075124545   -2.18113923630467
H           2.01537876983865    2.36734642787711   -2.04408231274356
O           0.12891032646538   -2.17275133500073   -1.35130943554825
H           1.20987808406803   -1.06768817861061   -0.70432491929257
H          -0.63497197491565   -1.71348615927183   -0.95011855339346
H          -0.00264752273687   -2.13468493318801   -2.30054421729995
N          -1.04523943122866    1.92859567314454   -1.86457307170887
H          -1.62743343137085    2.31090997008652   -2.60101032210383
H          -1.24770064968167    2.45348860678387   -1.01993099366539
H          -1.38190558446398    0.98957311681701   -1.66986757357612
