    26
        -50.45676983  Gyration_radius:  2.57784334779 Dipole_moment: 5.500
 S           0.01195531199403    1.21253212187727   -0.24969723064181
O          -0.05442796765692    0.58591491533558    1.07709498292584
O           1.32642223692507    1.13629074235269   -0.83964684085634
O          -0.97161547070277    0.37760957348051   -1.15448845552657
O          -0.56736467042248    2.55105919067890   -0.20592044807016
O          -3.58790451901757    0.31721640906169   -0.43696208467171
H          -4.11533485436882    0.61431381937565   -1.18049721831687
H          -2.68649639124136    0.16932210981533   -0.78344666360540
O           1.01696801130641   -3.07092716548140   -0.38645717055633
H           1.19157721789776   -2.53344877002375    0.43091475182712
H           1.78767854349962   -3.62880946430229   -0.50290579938473
O           3.49483185001587   -0.05839130601586    0.14927403780366
H           2.73801302922235    0.42281516206690   -0.24286955705504
H           4.08329698560414    0.61302513384074    0.49654778425369
O           1.64334538765601   -1.45858671931822    1.59867284112768
H           2.45432161712832   -1.07847759183784    1.21490770565359
H           0.98180077054302   -0.74770049765082    1.52359062639045
O           0.69116709809112   -1.18735162344917   -2.20432559651376
H           1.41391368859343   -0.57904013090101   -2.00390717911372
H           0.78198681059833   -1.95399758167047   -1.57826891424301
H          -0.38483221967530   -0.31034709473635   -1.64055304837085
N          -2.30149438178703    1.73678305732852    1.42543479982155
H          -1.51630714453765    1.06225778451058    1.63553786996423
H          -1.73505375434033    2.35294176846306    0.73815926703210
H          -3.03502906946619    1.23573260379334    0.87857306511391
H          -2.66141810586779    2.21926356339538    2.24123846500532
