    26
        -50.44925216  Gyration_radius:  2.46442879099 Dipole_moment: 3.913
 S           0.68632742888278   -0.13017848698922   -2.10854468627912
O          -0.48121952470782   -0.72930531971082   -1.49881386183920
O           0.41749754836616    0.89501433113935   -3.05352918551031
O           1.57059505268966    0.44790146907589   -0.95520300936595
O           1.59550511271487   -1.21372210702944   -2.67428922657369
H           1.94944266818815   -1.74183582230460   -1.87224070070934
H           1.13303270174826    1.32241151740146   -0.71404701672779
O           0.15557248645069    2.53450612727785   -0.55465690346314
H           0.11845825717265    2.85413855966097   -1.46059891408900
O           0.43418929693641    1.04854845316830    1.93005606849819
H           0.66520039981152    1.78297751701922    1.35332556911462
H          -0.51852349422022    1.09435328335489    2.06005429404684
O           0.34522803321323   -1.51788156628330    0.91108288526207
H          -0.08707038505027   -1.30441525352570    0.06192173253829
H           0.57378750931973   -0.65786279669317    1.31251761716580
O           2.43801946745201   -2.26798248261346   -0.52032644084938
H           3.12405002915098   -1.65480984014000   -0.24404687195033
H           1.68199332706745   -2.13118063430051    0.10935247050479
O          -1.99499305901652    1.10623824999546   -0.21650962153959
H          -2.17757159702793    0.63667568044365    0.62566394831430
H          -0.73301495161479    2.10578721792062   -0.38773351746972
H          -1.67865745527459    0.41502321906758   -0.82242181074370
N          -2.27366853929630   -0.48881012279117    2.02896707935273
H          -2.28823864402488   -0.29085648941651    3.02269552059086
H          -1.51649047506322   -1.14833479450865    1.85987124937266
H          -3.13945119386071   -0.96639992916408    1.80745331235109
