    26
        -50.43794636  Gyration_radius:  2.52497466006 Dipole_moment: 5.570
 S           0.19431900992809   -1.51094804954487   -1.08687100218448
O           0.08337345391069   -2.74544223863170   -0.37283568915985
O          -0.91684130784464   -0.62568258658592   -1.06354034701975
O           1.49316176012760   -0.79262106641170   -0.71567273740364
O           0.49596255694718   -1.87605451826830   -2.59657442655203
H           0.91794666842780   -2.73168259597165   -2.57308636209179
H           1.46196633403286   -0.39375561828201    0.26880447061363
O           1.43516049916432    0.12412459932465    1.57997895934628
H           2.26565276379435    0.56835907689801    1.76330376445295
O          -0.50046792356209   -1.86199401501567    2.15137302291448
H          -0.42478891186424   -2.33551505691934    1.30972487238358
H           0.30034523443774   -1.32912302041588    2.22798660737822
O          -2.25558406116119    0.17011607371929    2.42805134588535
H          -1.73531454582937   -0.64625938075422    2.27104271634574
H          -2.60286563837679    0.09999121433204    3.31825573553216
O          -1.00289055213592    2.14369434160237   -0.87159311908564
H          -0.29209108051459    2.13091679474419   -1.53743979176093
H          -1.36488206450419    1.24805776728034   -0.90491483354089
O          -0.33591249727061    1.87847782700980    1.66841480916978
H          -0.56460401584662    2.11688566899971    0.73461264912483
H          -1.11873839147276    1.37926582019836    1.99219105404330
H           0.68658984471445    0.88141268065726    1.61929978513783
N           0.82394198142121    1.23338772995664   -2.76537588942936
H           1.72959935357450    1.00468543056145   -2.37472997940318
H           0.95800962607296    1.48360474076485   -3.73749901741551
H           0.26895190382742    0.38609837074648   -2.73290659727937
