    26
        -50.44213319  Gyration_radius:  2.59763974966 Dipole_moment: 4.736
 S           1.40097169135378    1.56420986282599   -1.12373740115214
O          -0.01475694757286    1.26932483352573   -1.15479718779643
O           2.03816708307822    1.82688703215605   -2.35786373273050
O           1.59282987627446    2.77337317441447   -0.15296011736238
O           2.14182180613232    0.41050631135500   -0.42328897788571
H           1.71669645148312    0.15675374316227    0.46442324391124
H           0.86485437048261    2.76092999029331    0.51050539282576
O           1.07578797819018   -0.14072893554451    1.82221920746022
H           1.71134648845835   -0.58518707751132    2.38569673879069
O          -0.51655379884434    2.00974075420233    1.30400894754920
H          -0.62873992848873    1.68888310208450    0.38615299505960
H           0.00641609898239    1.32663223579525    1.75604128716827
O           0.67902514222638   -0.64688150772676   -2.96917212165830
H           1.47205997191298   -0.20334346071263   -3.27992149954502
H           0.17734988356756    0.03451603659904   -2.50436247904447
O          -2.70687422102038    0.30336193071339    1.73964991831145
H          -3.24458382793892    0.45049968194829    2.51868491262520
H          -2.12672497029327    1.07687517023328    1.64387690948854
O          -0.84564062374978   -1.71164868135300    1.41555319986714
H          -1.62321761435538   -1.12789003168670    1.47063527701807
H          -0.79247011651608   -2.02550987129750    0.46850699577993
H           0.30839517849697   -0.82345657641661    1.65926213358669
N          -0.67804860916952   -2.52095579338731   -1.12352402842677
H          -0.04516611724938   -1.94162013639023   -1.67119385012219
H          -1.59006002489272   -2.44402703128138   -1.55803318665311
H          -0.37288522056737   -3.48124475600400   -1.22636255704957
