    26
        -50.45146363  Gyration_radius:  2.53152503117 Dipole_moment: 7.033
 S           0.95853373932594    1.75113130646723   -0.23009372688676
O          -0.36057625233757    1.17289869707707   -0.41454021026056
O           1.03928138726845    2.74404616927100    0.78529697202600
O           1.94563980412160    0.58386334525477    0.06078989037849
O           1.47521632713177    2.25922247240764   -1.56244316887946
H           1.40162733828878    1.41600488195897   -2.22295669238092
H           1.54884891675940   -0.14550028423433    0.63676128513478
O           0.97362010000741   -1.34867209594647    1.41972905216538
H           1.57137938940657   -1.58743885377244    2.12985616558275
O          -2.59366043640807   -1.90007494843172    0.37700498330431
H          -2.80725164273318   -2.83342576695396    0.34865411853335
H          -1.90048025697322   -1.74664252307986   -0.29144167826807
O          -0.30585215166089   -1.35681092269268   -1.09647049992281
H           0.25079654774756   -1.69173434104903   -0.38106913436375
H          -0.45899902530935   -0.41359271499890   -0.86642286114967
O          -1.36776676640834    1.88237545133549    1.98880744308103
H          -0.62423631240226    2.46750029779769    2.16610101445051
H          -1.29286140194694    1.69151548480822    1.04082931767098
O          -1.26058842789769   -0.76319458154970    2.48932277416600
H          -1.37279427713981    0.21070900976141    2.45536096664390
H          -1.90099334168240   -1.12412132781225    1.84703395063775
H           0.08476481331770   -1.11033189250287    1.87086387948817
N           1.27393866889839    0.18246451195039   -3.00581309069792
H           2.18997021667120   -0.20496403981604   -3.18990896340574
H           0.80594281429407    0.35996891884974   -3.88480056477423
H           0.72650023969756   -0.49519623417825   -2.47045121232730
