    26
        -50.46543346  Gyration_radius:  2.55502598333 Dipole_moment: 2.836
 S          -0.79962931460582    1.96268755953518   -0.79731861329288
O          -2.02766492629031    1.19966014257342   -0.61227530587097
O           0.17474344832284    1.70022513049878    0.24187177663632
O          -0.26532624194824    1.79279774666969   -2.13676336395267
O          -1.19689683562888    3.48681393558095   -0.64990483969085
H          -1.86057105781491    3.58800864415531   -1.32427726721540
H           0.24871769340221    0.31081731027012   -2.36776511320246
O           0.53751621812642   -0.64061574043017   -2.42738740611303
H           0.73898985074572   -0.80002104753640   -3.35073750499609
O          -0.61679946013816    0.72842046796888    2.57382469008883
H          -0.39692529202502    1.13061605064464    1.70661903110105
H          -0.04140532612324    1.15130343938705    3.21311399199417
O           2.24809433871037    0.06757055128366   -0.32438680081381
H           1.89896839136310   -0.28664542803408   -1.15408030656796
H           1.60819639451260    0.75373632695827   -0.05986323500967
O          -0.50540356766032   -1.84675625932817    1.83517657486108
H          -0.61436618675847   -0.96313164179228    2.24793533856192
H           0.46601187466633   -1.98152082691013    1.75101440120715
O           2.12655156356108   -1.91609522868842    1.43003097441757
H           2.76245874833810   -1.73239311673589    2.12191844765520
H           2.22886449720034   -1.19175468697262    0.76417944270999
N          -1.34779711040860   -1.32082091969022   -0.54745261775089
H          -0.57768556622379   -1.32742933772337   -1.23619009796032
H          -2.08925034996453   -1.95057969275303   -0.83528838368003
H          -0.98907361546746   -1.59136601256346    0.45263332399915
H          -1.71031817791618   -0.32352737635832   -0.51462714711134
