    26
        -50.45836027  Gyration_radius:  2.69544903925 Dipole_moment: 4.804
 S          -1.62043884899249    1.81166434491181   -0.54201376349568
O          -0.31530237602819    1.93368146139003    0.09694133622990
O          -2.60619164671365    1.22147379161265    0.33114652573670
O          -2.07634289504056    3.30254622177760   -0.85024038348356
O          -1.54997946096894    1.12689650008439   -1.83117083005184
H          -1.45468200740177   -0.40158568905521   -1.32650337261667
H          -2.99221888669003    3.24355443386018   -1.10960506642023
O          -1.36828810677623   -1.29393210154519   -0.90146236070959
H          -2.22110487068945   -1.71729727710738   -1.01515170237878
O           2.87751919337945   -1.66316421062514    0.80917961783070
H           3.33810115651535   -2.48734405305502    0.64763269729654
H           2.35888769127996   -1.48153544505652   -0.01624852147758
O           1.13453817297710    1.26195755014995   -2.11286300671549
H           1.09463043595818    1.71611286653670   -1.26085614324839
H           0.20092470832506    1.20802521654406   -2.37274578687196
O           1.34565322326312   -1.28104792719051    2.89412454024735
H           1.94957103177871   -1.49810873331471    2.13497912070311
H           1.83000951478701   -0.65728436093649    3.43771190620985
O           1.43700700226471   -1.30819864225450   -1.36696429793450
H           1.47670467306471   -0.39015270368627   -1.71533925455180
H           0.49717306599257   -1.51301135835179   -1.29494049314635
N          -0.65812349655027   -0.24237455604982    1.50009493696747
H          -1.52123054630738   -0.05182225987104    2.00537414722009
H           0.09879338576121   -0.66764347946128    2.10839085797241
H          -0.89433241580062   -0.84804833372441    0.68349630610147
H          -0.36127768745152    0.67663872442437    1.06703296060060
