    26
        -50.44050824  Gyration_radius:  2.63542136555 Dipole_moment: 6.812
 S           1.72579218341655    0.96840597655288   -2.00146010712833
O           1.56062321988158    0.03034164068736   -0.90882855819983
O           2.78521969040575    0.71919281582270   -2.90270716341073
O           0.35724185089946    1.03915886954245   -2.75914615171740
O           1.86474642057968    2.38583584020655   -1.41753015341854
H           1.12696558732498    2.49833236634228   -0.75386684071221
H          -0.26713546294595    0.36992587687012   -2.38078772793926
O          -0.32581969985983    0.69535089536289    2.28122694462056
H          -0.09945876505029    0.92801945569859    3.18166418077361
O          -0.91900033904331   -3.10748166169923    0.09259748347025
H          -1.04352207486465   -2.35954383553928   -0.51938097162075
H          -0.76641375543198   -3.87982107231609   -0.45318807771929
O          -0.91220620900358   -0.71739916299316   -1.29313758245093
H          -0.00664003673887   -0.61407820736551   -0.93472261881730
H          -1.50582880822125   -0.22390714128942   -0.68467842628067
O          -0.12508518430010    2.46255449582428    0.22428304656259
H          -0.05282803979819    1.86988630754109    1.00062188640099
H          -0.98800469003603    2.28180783893944   -0.16039052918369
O          -2.39410712471184    0.56711946651880    0.54831972359900
H          -3.13099416138713    0.02304799037258    0.82984493231876
H          -1.76031269269718    0.58852188814274    1.29234210877652
N           1.03202703733159   -1.40131410701463    1.55569071208913
H           1.72494304904228   -1.83613342638232    2.15072945709005
H           1.50875646636058   -1.02572543262687    0.73976474544280
H           0.39530314255199   -2.12709214096824    1.23107624023261
H           0.21573838636925   -0.13500554635964    2.04166346718637
