    26
        -50.47513873  Gyration_radius:  2.42340904487 Dipole_moment: 3.744
 S           0.31345819049501   -1.21932128192723    1.40932492229956
O          -0.94101699454380   -1.24155711877838    2.13557281675678
O           0.99732259033015    0.06231932892933    1.55600231956671
O           1.23791262222495   -2.29870048865771    2.09689744912307
O           0.18815334441243   -1.60823165757698    0.02061013247879
H           0.14036073037551    1.34590468879984    0.88025160381462
H           1.04396131285089   -2.12659657424381    3.01091860710556
O          -0.46503435855192    1.94672914512400    0.39552246965427
H          -1.35271468462467    1.64457545791392    0.64978538511899
O           3.12398174361379    0.70157337200673    0.10935359266362
H           2.40903101984242    0.42057020806502    0.71873834751114
H           3.21989786155469    1.64709568934887    0.23455658483097
O          -2.63410095397952    0.38230920475549    1.04108134413687
H          -3.41243473306980    0.43868519091617    1.59761976172711
H          -2.01745101341501   -0.24894605682807    1.49668553128940
O           1.79282306400672   -0.55520251894995   -1.86479595168683
H           2.45673823789418   -0.10925291204338   -1.30178580246738
H           1.31767963687211   -1.14958862514570   -1.25253903701563
O          -2.03161972437129   -0.89717087412933   -1.32055242281445
H          -2.49594076999409   -0.46471306289746   -0.58425416649378
H          -1.30234716981220   -1.38658929041206   -0.89286108169429
N          -0.31955559060886    0.97007065021479   -2.05802646948703
H          -1.09149690854912    0.24876068472212   -1.95958854324352
H          -0.45012405059672    1.56702090866821   -2.86574924444757
H          -0.32604356480877    1.51314917940297   -1.14792292747643
H           0.59856015247602    0.41710674274102   -2.10484520123228
