    26
        -50.46219444  Gyration_radius:  2.45874884453 Dipole_moment: 7.656
 S           0.37549491735067   -2.02246766395933    0.11032162328257
O           0.41546091411247   -1.70822846266725   -1.31443308260844
O          -0.13407679008438   -3.30783523843280    0.44250780376854
O           1.86910288097304   -1.91406655900894    0.61762709258824
O          -0.31846797931315   -0.92638271972164    0.84082329539897
H           0.30516106980803    0.27103998601009    1.60402721095073
H           2.17511819555174   -1.05790605867478    0.27043869473312
O           0.72219666893793    1.09195091007156    2.00253322820274
H           0.93480436648572    0.85884444999398    2.90789303764799
O           2.51341324277180    0.68671363183478    0.02098914472670
H           3.41678958113021    0.89832226617741    0.26322242103160
H           1.93565174309420    0.99927777033223    0.74853778820233
O          -1.40545616068650    2.65186624809346    1.13098097874972
H          -2.00157966482443    2.74319556897551    1.87558489165187
H          -0.59492541834433    2.23091509949405    1.47144588610190
O           0.75309644040279    0.73646823190159   -2.21369103527919
H           0.70836524463338   -0.23870719636657   -2.09756761344487
H           1.47508882730301    1.00424010109095   -1.63156857606089
O          -2.24656375938947   -1.92361452418254   -1.15330614067273
H          -1.31434537630229   -1.94347335742187   -1.42508637369624
H          -2.32328460356552   -2.65397948430193   -0.53576727241239
N          -1.48219796396081    0.73140819855091   -0.80196747870778
H          -2.28186799401664    0.30113123741220   -1.26310885264110
H          -0.69100404799992    0.90379327775599   -1.48443708620728
H          -1.70610395965277    1.58328879679975   -0.26199526629874
H          -1.09987039441170    0.00420550024884   -0.12400430900926
