    26
        -50.45751170  Gyration_radius:  2.42077417513 Dipole_moment: 7.728
 S          -1.35001530243486    1.19502830144351    1.08884189720737
O          -0.44638845571652    1.96939622901600    0.24042064596990
O          -2.17375316544929    1.94881190331212    1.96626110401703
O          -2.28546689994972    0.39549472991265    0.07384837094356
O          -0.59047758062854    0.12473663863139    1.78146508097762
H           0.01539230206480   -1.12989087503351    1.18923471557273
H          -1.82352612543997    0.42224971898769   -0.77828810851633
O           0.49672681910852   -1.93957502848120    0.81450518296829
H           0.59933755869813   -2.53682503310102    1.55734225962874
O          -1.70844840875982   -2.32808347693270   -0.77056659678814
H          -0.87842975256916   -2.36493805883920   -0.26081537807297
H          -2.31613610042208   -1.80427147200895   -0.23549061560947
O           1.59007789227111    1.51768295875281    1.95597092000829
H           0.78135300204317    0.97938542547834    2.12673891199915
H           1.23158913286795    2.27008517548608    1.46779491624903
O          -1.23891331777793   -0.28977296105016   -2.37862711407714
H          -1.91940341696136   -0.21952304473757   -3.04942866731835
H          -1.36889986148030   -1.16420517681385   -1.93315754019859
O           0.99764480557705    1.16746761527712   -1.77114090279682
H           0.34700779445295    0.61526267417585   -2.23076165290635
H           0.46422489853176    1.62664661113758   -1.07521289713691
N           2.34988720110752   -0.11108321338608    0.03862177325624
H           1.88827478354146    0.36665583201506   -0.81183879459833
H           3.33077667337488   -0.30995034391609   -0.11939203409871
H           2.20165336817671    0.56856933655056    0.85416342537281
H           1.80591214580206   -0.96935447585377    0.25951110797231
