    26
        -50.46890286  Gyration_radius:  2.55277982086 Dipole_moment: 3.465
 S          -0.32089097169980   -2.24467791814877    0.20065456732121
O           0.46380556001670   -1.49365038055876    1.17997068496181
O          -1.58947512488249   -1.61356637914548   -0.09085444727105
O           0.46309057369883   -2.55797983295950   -0.97941471327901
O          -0.66532212915490   -3.62997172056576    0.88657027215032
H           0.18085447735172   -4.06451598533407    0.88914652356073
H           1.64783572144170    0.34643693599573   -0.83230696865430
O           1.70572859761410    0.58130905025691    0.11051046381550
H           1.41330722423545   -0.22708275462169    0.58631607682282
O          -1.59475806235588   -0.12841692763133    2.12489797193430
H          -0.73925503465546   -0.59891805137273    2.10090569572593
H          -2.11624880898552   -0.63670622657611    1.48531005421320
O           0.94687911000790   -0.40600222540794   -2.32477074950250
H           0.75975272039150   -1.26295518337990   -1.85656057421236
H           1.39256521613698   -0.64286321347433   -3.13953568854630
O           1.54869996286532    3.34319236005927    0.87102307392734
H           1.92758000952577    2.47767905780948    0.66576952681732
H           2.26207352979426    3.87668109095222    1.22227840848088
O          -1.60105338222036    0.49429328882291   -1.74379991383328
H          -1.78789830492324   -0.32679925067430   -1.24631904930789
H          -0.75866475717827    0.31353305898813   -2.19265667113697
N          -0.72556863397279    1.71227918444919    0.42195155279400
H           0.27007560779852    1.38346799882758    0.34298748845931
H          -1.16426121681413    1.16024221260403    1.20904885199477
H          -0.71975257035447    2.71378593796226    0.59176888683101
H          -1.19909930368516    1.43120586311946   -0.48289132405277
