    26
        -50.46161223  Gyration_radius:  2.54546853366 Dipole_moment: 3.668
 S           1.04176258823847   -1.23732738823961    1.75688713655654
O          -0.34160200831574   -1.41511934469282    2.19750188741290
O           1.28024478894287   -1.71001214419026    0.42187144667232
O           1.48144553308806    0.13922553332552    1.96041401277236
O           1.91808227845917   -2.13157065753349    2.73603154396028
H           1.63890923592934   -1.84139563898404    3.59904961684228
H           1.66451625630216    0.63638168569639    0.47347901580278
O           1.76920316387094    0.88594145142472   -0.48566370726208
H           2.69168552006199    0.71736909989863   -0.68417664330795
O          -0.68420171721320    2.21320892407438   -0.70150312755478
H           0.26183098365655    2.01804240611236   -0.66237890053961
H          -1.04565606879702    1.83931244774301    0.12407472550559
O          -1.19421110916826    1.07146127700378    1.73012191544541
H          -0.93901123396798    0.15548035298345    1.96009841192051
H          -0.54702533083032    1.61298574865928    2.18870114846090
O          -1.27874665104662    1.18694334812336   -3.05979782931483
H          -1.00221679509571    1.81358647288810   -3.72918014261138
H          -1.21537523962952    1.66236069139158   -2.19376856654248
O          -1.82423532931395   -1.45065828043773    0.02799898096169
H          -1.28785799510251   -1.63116899864171    0.83249782014613
H          -2.35503771499120   -0.67894576541808    0.24736252532807
N           0.00003116119509   -0.77417417598364   -1.77443185333506
H          -0.45799244525679   -0.13427354185123   -2.46353412603970
H           0.41852387307155   -1.59550740169416   -2.19725431342259
H           0.73523371825442   -0.25670009457307   -1.23654641972399
H          -0.72829945234227   -1.09544598708577   -1.06785457814262
