    26
        -50.45490834  Gyration_radius:  2.67229944024 Dipole_moment: 4.239
 S           1.40464473512240   -2.43759914266141    0.14081521490679
O           1.93284743805422   -1.92858859665556   -1.11711836096520
O           1.87267579446339   -3.72179595373516    0.55105303154984
O           1.99977824162722   -1.40180718810200    1.27299305363800
O          -0.03412320811965   -2.21968873471137    0.22488885709535
H          -0.76188292082015   -1.43766756312309    1.34227653458421
H           2.78053684349536   -1.87997689429842    1.53336600361920
O          -1.29658862362869   -0.83463110569546    1.93901199935393
H          -1.60686100897352   -1.37888965895885    2.66337494874377
O           0.62948607400359    1.02130415130982    1.49542016400321
H           1.39651563640965    0.47036261698355    1.69399134912934
H          -0.12912313002236    0.49633138900830    1.81422580377079
O           0.32066750130596    2.58429660982075   -2.41361832525303
H          -0.23629427410339    2.80503965088581   -1.63658554663949
H          -0.04765376096809    3.05298474496763   -3.16229970170247
O          -1.19289822517550    2.63462805654146   -0.17199417750652
H          -1.76127219736173    1.86221682246853   -0.28843247026647
H          -0.59659659666562    2.42348580269738    0.55568779957162
O          -2.23492720769149   -0.03982545969127   -0.49228344866036
H          -2.72309499748462   -0.76962534506668   -0.87651507725599
H          -2.04504834117508   -0.29876056598952    0.43066183231533
N           0.47341152709770    0.20055402153916   -1.12238844739785
H          -0.51887889287636   -0.08858465286769   -1.11007200379483
H           0.61431192346612    0.93289645892153   -1.83765148747266
H           0.66335096907559    0.60939841333547   -0.18290148425025
H           1.09701671095075   -0.65605787692173   -1.24590607111705
