    26
        -50.43943020  Gyration_radius:  2.58110265207 Dipole_moment: 4.532
 S          -2.39248505986835    0.37759522074162    1.42774829239113
O          -2.15796530964546    1.52854631312204    0.59307746304304
O          -3.67759438845799    0.20763552729802    1.98976997644707
O          -2.02201548362101   -0.87914112001186    0.55923093041592
O          -1.33423549005188    0.32536396272889    2.55247563905981
H          -0.42255082139335    0.51106200288532    2.17736116826965
H          -1.63554950529227   -0.55033695250513   -0.29755459533032
O           1.02786818688278    0.78128967883181    1.63369354787705
H           1.60437399443117    0.99359893021384    2.36871317541148
O           0.16294313558211    2.05019881026722   -0.59066423836762
H          -0.72129580707267    2.24031345667787   -0.22792606709787
H           0.65439822423837    1.73135710334361    0.18922891297587
O          -0.12507548927393   -2.65775740321413   -0.67352904623616
H          -0.35864745144246   -2.01194102231384   -1.34901593768202
H          -0.82781361215598   -2.61205688482847   -0.01811925961321
O           2.09500102553923    0.55958820264214   -2.13088162759801
H           1.64812906313380    1.33262033623505   -1.76512974410094
H           1.46382677953498    0.13515814145069   -2.71630459889409
O          -0.99835053255416   -0.03993187854244   -1.69816530567799
H          -1.75072555449718    0.34285387124039   -2.15423811820897
H          -0.47890278429611    0.73180856969411   -1.33934130802287
N           2.09814404768622   -1.09107178834149    0.27142741122826
H           2.91848696134189   -1.55519872089355    0.63767079567412
H           1.40752891443117   -1.80322073440912    0.02857371400451
H           1.46574098735401   -0.03318076175983    1.12518795499300
H           2.35676598946066   -0.61515286055067   -0.59328916497252
