    26
        -50.47074746  Gyration_radius:  2.49961443539 Dipole_moment: 1.702
 S           1.22161791646938   -1.47871365636712    0.47642795266796
O           0.88301812867719   -1.59394545885663   -0.94110174876140
O           2.15283823375359   -0.40816078865336    0.74325780419907
O           0.02678235684019   -1.42656988559194    1.30191720994075
O           1.97119955639431   -2.81895350715257    0.86001541484842
H           1.31815982372474   -3.48786538988405    0.68190410879299
H          -0.63147200604359    0.07702391550436    1.67496986017205
O          -0.86240660946690    1.02771687001467    1.75145332159131
H          -0.03521457063053    1.44898969186041    2.06364125475196
O           1.68024772184008    1.75271085041513    2.19682952134774
H           2.12058104335046    1.65528576052379    3.04231600889616
H           1.93092478262273    0.96272815465350    1.67036478479206
O          -1.71481338993550   -1.97947083390443   -0.73058076514668
H          -0.76893248571209   -1.91249015878785   -0.97631274591680
H          -1.69908266916812   -1.86870067843395    0.22727380700385
O           1.41557273425908    0.90075188651917   -1.54938044757544
H           2.07292181096608    1.01539274997850   -0.85357775667591
H           1.23692941520661   -0.06422425819234   -1.52559168676901
O          -2.64389490775528    0.13442905593353   -2.00016336092481
H          -2.48826544079334   -0.06566214811790   -2.92455723000904
H          -2.41931164929680   -0.69633872481575   -1.50564194149424
N          -0.95993776500318    1.78639683191830   -0.74561062618914
H           0.00041980027423    1.52952047368809   -1.10853401616227
H          -1.67596800662150    1.21606844552913   -1.26548902483298
H          -0.99440861054621    1.51609440313634    0.29666616814990
H          -1.13750523338808    2.77798638913170   -0.86049587668205
