    26
        -50.45856243  Gyration_radius:  2.57508341658 Dipole_moment: 5.428
 S          -0.48444896666857   -0.57562117621016    0.79468908919711
O           0.41905607003953    0.50605781655592    1.26460313933690
O          -1.22548872762033    0.03824886751830   -0.43560790736295
O           0.25428808957723   -1.74223846956378    0.35921259915997
O          -1.51205329095745   -0.84493155205485    1.77249977207105
O           2.71420360799573   -0.70122693612649    0.56355202395872
H           2.23534765052741   -0.01970971761026    1.05596676943207
H           2.03122237057079   -1.38237944662116    0.44420275760928
O           0.33939073880237   -2.78224678442603   -2.09324628282629
H          -0.40979869434807   -3.37181498001956   -2.18942456684134
H           0.35697445165595   -2.51796523620689   -1.15049494247218
O           2.71038681863349    0.42814093753155   -1.84237952501405
H           2.79027354515915    0.03890705617126   -0.93632510608865
H           3.32580485858018   -0.06010828229063   -2.39189824612619
O          -2.89815348774107    1.15182796562597    2.63571867699472
H          -2.48357483714559    0.30706289585706    2.30521066522960
H          -2.80412428284105    1.12422960381070    3.58972928837341
O           0.19177482095676   -0.13148601549634   -2.49983584779745
H          -0.63980375967902   -0.02410319806211   -1.28915199519384
H           1.10768559480160    0.17564792767704   -2.29424120845950
H           0.26210741253369   -1.10510380095899   -2.58658135248021
N          -1.26195792200615    2.35069421671777    0.98007104822158
H          -1.99211469487798    2.07338887301010    1.70006163045692
H          -0.42533845062769    1.63292531961517    1.14949374154293
H          -1.61656417167368    2.10681598903123    0.05440176448324
H          -0.98509474363739    3.32498810653471    1.03977399460452
