    26
        -50.45423375  Gyration_radius:  2.44501333022 Dipole_moment: 1.963
 S           0.80926915855408    0.20293870776831   -0.71370553137322
O           0.04398190972526   -0.14032485692184   -1.91767286773206
O           0.23695827664165    1.42359430495544   -0.08191508037501
O           0.69101264215450   -0.90182518517020    0.27368921062112
O           2.23582508091511    0.43236106308892   -1.02382275012288
O          -1.67830459567319   -2.01394054050948   -1.81115568296479
H          -1.88046927976607   -2.20001975359044   -2.72963515652535
H          -0.89587192207276   -1.38202692085243   -1.82541222860370
O           2.35986216841180   -0.79384870013376    2.26738071342327
H           1.69019448376773   -0.90764892614795    1.54084317083722
H           3.04637977173624   -1.43597910021648    2.08016357227459
O          -1.49036299340153   -0.74048687452969    1.57066966424227
H          -0.61189679501267   -0.74930444232791    1.07328445670457
H          -1.56052443766267   -1.60566405855065    1.97940992315628
O          -1.90779652926070    1.59245098286142   -1.42145045557657
H          -1.13321852408566    1.69222592538927   -0.78897094937039
H          -1.46240092352487    1.16088241097208   -2.16687957430432
O          -3.01646104734804   -0.39105237189798   -0.39809742911250
H          -2.61044748812425   -1.12103862196013   -0.99909550936582
H          -2.48183350782155   -0.50044639521365    0.49095083378574
H          -2.64100968061406    0.52797878261630   -0.82075901163463
N           2.49320273246364    1.61536137725565    1.13536181641417
H           1.48521362078563    1.85294536558641    1.00597871847287
H           2.61404567669707    1.12680031109314    0.12220454274241
H           3.08442672184659    2.41408445500745    1.32979345633575
H           2.58022547066668    0.84198306141648    1.82884212805336
