    26
        -50.47523116  Gyration_radius:  2.42133426863 Dipole_moment: 2.902
 S          -0.57033725712653   -0.25553886030284   -1.75163206363197
O          -1.55122056144257   -0.22735407099525   -0.67448587205161
O           0.54354673088622    0.63908804035049   -1.49955654375656
O          -0.16101686854382   -1.60809718390564   -2.07037002604880
O          -1.29606175706325    0.31188029024778   -3.03369861550488
H          -1.92311232793111   -0.38251783228584   -3.19898763217308
H           0.74821157344490   -2.23551474537979   -0.91285399888488
O           1.25760023345161   -2.58032985806270   -0.13377551329645
H           1.66006063161444   -3.40027940258750   -0.42437724677036
O           2.12332802297351   -0.05450899206957    0.52729740826519
H           1.67006595557390    0.30140450983040   -0.26424608927057
H           2.07824625517336   -1.01755882791932    0.40476060633935
O          -0.95793766050746   -1.88042574763712    1.35002426501065
H          -0.20239411105750   -2.35235934981822    0.96227131808386
H          -1.34869714823670   -1.38055039386041    0.60470779353073
O          -1.45797665125846    1.88475491783694    0.97568306437370
H          -1.68305675659945    1.16506100700556    0.35218745940509
H          -0.98903757096809    2.54275420808341    0.42732089314393
O           0.07682223242180    3.16459238455732   -0.83747049733818
H           0.93562262976810    3.58653648185763   -0.78230976829503
H           0.23549726459325    2.27178473134394   -1.20802300420419
N           0.17494308846045    0.31263331647128    2.27469521199675
H          -0.46842082973910    1.06126885325324    1.85588656916142
H           0.36799911766775    0.47949183390233    3.25483324812103
H          -0.32064484275326   -0.61196782052484    2.11221247442042
H           1.05797061759662    0.26575250053033    1.68990656981090
