    26
        -50.45568799  Gyration_radius:  2.67579408024 Dipole_moment: 1.925
 S           0.06181917072117   -2.34113910504957    1.10376881434238
O          -0.66839524525882   -2.45306305567972   -0.15771802503615
O           1.48112178291513   -2.48951568109925    0.95622401116291
O          -0.29624968459553   -1.09495781502882    1.79280006497860
O          -0.47108870537027   -3.52414574384078    2.01537513636814
H          -1.41342638158959   -3.52924803626467    1.86742919423028
H           0.96189895032177   -0.15560568909871    1.35573944700182
O           1.76257589982755    0.21304375363129    0.90483590655549
H           2.44868813123652   -0.42462645956613    1.12891562874720
O           1.11295638237902    2.89775247334323    0.67590730796956
H           1.85522204249315    3.33297313789613    0.25458496829293
H           1.39233867586917    1.98962812220300    0.87298432812258
O          -2.21757272549430    0.47788069299906    0.85183536638368
H          -1.52596509075908   -0.14654326785953    1.15623684059045
H          -2.59361076360252    0.85760796419595    1.64797312883843
O          -1.19148274303704    2.41783070421255   -0.74612241004038
H          -1.63422195706530    1.74290270628038   -0.19221196087346
H          -0.42057154677649    2.71294589718598   -0.22945027658282
O          -0.53825375474718    1.02337853940604   -2.81620666137920
H          -1.37784924311081    0.70129512431332   -3.14861516124466
H          -0.77481103438486    1.65454941114971   -2.06844432103274
N           0.82046073628691   -0.76990357519302   -1.46287660275114
H           1.26827068606340   -0.29259764193755   -0.64782661088504
H           0.28168717591486   -0.06122368562761   -2.05846181896631
H           1.52498962105786   -1.25159424647733   -2.01230554384891
H           0.15146963065230   -1.48762454396801   -1.04437076085959
