    26
        -50.46931065  Gyration_radius:  2.42116804592 Dipole_moment: 6.622
 S           0.94676739847991    1.13203099678409    0.43340915901141
O           1.05415115173402    0.65063941765643   -0.94606057870294
O           1.97923277615430    0.61735437760227    1.29176267989506
O           1.06636052715763    2.68308568993826    0.38035345696249
O          -0.39668913170700    0.83843826111951    0.96086695990650
H          -1.70976282740079    0.73035872905527    0.14612260097376
H           0.33047587763045    2.92570616793036   -0.21792903718501
O          -2.50254195685053    0.65819204706679   -0.46027609880130
H          -3.26482524907106    0.57656540011605    0.11541672148470
O           0.29332731302812   -2.80548905846429    0.26354373121978
H           0.10710460658750   -2.41731729613183    1.14997039954011
H           1.23379906008500   -2.56600249532536    0.10417769325120
O          -1.16914006806089    3.08724857746277   -1.03642405484001
H          -1.68221516568626    3.75224527326738   -0.57146960613436
H          -1.69115323790535    2.26771935807414   -1.01948423383219
O           2.63180768532983   -1.55033100694107   -0.12405042958141
H           2.52147298869393   -0.80714283698457    0.50233110853270
H           2.66422991777828   -1.12380408515844   -0.98380128691682
O           0.11506310314032   -1.30070686329206    2.45656500979662
H          -0.15775475033197   -0.47650495960392    2.00937048042368
H           1.02248023934903   -1.13349254677341    2.72600686863351
N          -0.70387015042952   -1.16362614681105   -1.46171821505202
H          -1.60318272642947   -0.72889711852113   -1.20750968264159
H           0.03655979098741   -0.39528786717520   -1.34859728138117
H          -0.40092955765078   -1.93353394348185   -0.75097616304510
H          -0.72076762461621   -1.51744807128654   -2.41160016148355
