    26
        -50.45839448  Gyration_radius:  2.42606612964 Dipole_moment: 8.899
 S           1.41638223933572   -1.07485924537488    0.83909009896096
O           2.27687993999577   -0.27070737309198   -0.02923416106494
O           2.07041700389007   -2.09125267713953    1.58761349618835
O           0.52803074278430   -0.21221791386405    1.63325648919825
O           0.42198752440399   -1.77658518583767   -0.21485054009111
H          -0.46543923100975   -1.76472995117707    0.16819931335556
H           0.04449727133407    1.20988172031937    1.04508890834714
O          -0.26284480381027    1.97946584657008    0.49942486782110
H           0.57641205265751    2.37369997647290    0.17940115939865
O           2.20312754363760    2.35888578899708   -0.43932160619298
H           2.47072254975626    2.41811180606657   -1.35799380079475
H           2.37046235064937    1.42898059865341   -0.17677217948207
O          -1.82871763024130   -0.57133249883372    2.66275560800072
H          -2.09361030068907    0.30709402010253    2.94249334343126
H          -0.86659709656388   -0.50089352115218    2.45118741850444
O           1.18237750869592   -0.26275150763032   -2.36789562556170
H           1.66724190529201   -0.25346645236413   -1.49605748354709
H           1.19775860983837   -1.18404785163165   -2.63499729710081
O          -2.26032085496506   -1.43766326846352    0.24284470848434
H          -2.74131165149328   -2.26474594819970    0.28992794454002
H          -2.21526940991953   -1.08650321331390    1.17377777030639
N          -1.16320577354088    0.53096391027116   -1.42264444799130
H          -1.75810211157500    0.99185009601617   -2.10208356840000
H          -0.26958243591783    0.17147253259666   -1.87574934606670
H          -0.84182838350959    1.22740272037814   -0.63219531418785
H          -1.65946753889338   -0.24605240769726   -0.96526576587740
