    26
        -50.46682786  Gyration_radius:  2.46524731486 Dipole_moment: 2.716
 S           0.63633488255179   -2.21729756340298    0.10486024465887
O           0.95180885360598   -1.37672177228801   -1.05312308807804
O           0.48900828530704   -3.60139449851444   -0.20421960605261
O           1.89460033999488   -2.09371447581191    1.08180036438736
O          -0.46651406470767   -1.62557228164556    0.86233298421916
H           0.27786072417535   -0.43658990547247    1.71069671959391
H           2.38557953368956   -2.86044771031328    0.81057371000866
O           0.71779245193391    0.32939051752970    2.14381671299107
H           1.25974708361056   -0.03938505243485    2.84263993152847
O           0.25741390547738    2.48690874857568   -1.15891028241952
H          -0.28601383795656    2.57996255113736   -0.34269582433635
H           1.10192397959480    2.07657748734608   -0.84761100894885
O          -2.50702555282092   -0.24720927171465    0.00755368848907
H          -1.77082990175327   -0.80307313847828    0.36454004748314
H          -3.32040949482212   -0.66952852358891    0.28651327911801
O           2.12699252304585    0.90092623236921   -0.15606162354425
H           1.88058554014302    0.04724583887126   -0.55180438738952
H           1.80162178243727    0.84904613145778    0.75879649410295
O          -1.19225896223509    2.06073768129356    1.04385420354478
H          -1.80378525052896    1.36438761102070    0.76523682052149
H          -0.53557405670271    1.62209958643857    1.60377739675743
N          -0.79845618457590    0.32388892826190   -2.04385338813598
H          -0.09804862917002   -0.40328494467614   -1.73386553317772
H          -0.36934980230447    1.30640828368135   -1.76799921761479
H          -0.97806444233847    0.25112334763953   -3.03841553373508
H          -1.65493970565339    0.17551620271616   -1.48843313397360
