    26
        -50.46074579  Gyration_radius:  2.61317477178 Dipole_moment: 2.404
 S           0.38257404525041   -2.11838504736915    1.42578117028875
O          -1.05570577166711   -2.21237007845769    1.55412562996935
O           0.86641330030795   -2.59249768450325    0.13913692015848
O           0.88182799149089   -0.78397192133001    1.74888023828225
O           1.01663184441541   -3.07347300027306    2.52227638259920
H           0.73975322446912   -3.93319989642670    2.22143122620536
H          -0.02739279446950    0.57237813059156    1.77521962312911
O          -0.55785406767854    1.40408463037917    1.69405084426092
H          -0.75890606252902    1.67784836615667    2.58963092298839
O           2.07582958677002    0.94818283961938    0.11650197886113
H           1.89156490151704    0.27657766705892    0.80346632488029
H           1.77871845540545    1.78798764282298    0.47442897374177
O          -2.01022857141507   -0.27727115882858    0.05825845623405
H          -1.84518236515909   -1.10332325139632    0.56460171316131
H          -1.81385260799922    0.42421709677552    0.69861951126349
O           0.09283628968405    1.26891802081219   -3.35094929105335
H           0.48276743598678    1.89583549819936   -3.96004242056031
H          -0.20457652057859    1.77991086499972   -2.57788262023249
O          -0.91024411857928    2.33830559452380   -0.97723384164776
H          -1.80069078273373    1.99003891234974   -1.07319841689119
H          -0.66240804572650    2.16340978345726   -0.05800756550313
N           0.28743243583349   -0.49280973431679   -1.30343579907303
H           0.58222297270923   -1.44045659746137   -0.96049759717944
H           0.27403010757403   -0.37273950970899   -2.31959291368708
H          -0.67360160880936   -0.32166607296480   -0.90447207822341
H           0.96804071596069    0.19446892530426   -0.90109738197948
