    26
        -50.45805745  Gyration_radius:  2.60564079026 Dipole_moment: 5.346
 S          -1.27586418830449   -1.78152165358645    1.00972427150141
O          -0.39581883555502   -1.73243294467658   -0.15759243077537
O          -2.17209746233028   -2.89002884670297    1.04464351843827
O          -0.27766068927703   -2.00213726790706    2.25914423114864
O          -1.87362297642049   -0.47005417488586    1.24446342608889
H          -0.67183884133564    0.39158718194577    1.91110225859748
H          -0.59344835500505   -2.85754945893586    2.52578010246774
O           0.16499053889552    0.78895396808462    2.25536433766125
H           0.56844718606793    0.07682144399666    2.75890687149419
O           2.20667946108223   -1.56519647629417    0.01602072767150
H           1.23343414567995   -1.73482653334060    0.03631866365194
H           2.54128744994311   -2.06464973537355   -0.73055819726095
O          -2.69896167033136    1.28967109843924   -0.56291411097575
H          -2.53639908425632    0.60071723162033    0.11499131195682
H          -2.85501601853780    2.10263707793966   -0.07987758113413
O           1.55632691486371    2.17807594115190   -2.59046227055716
H           0.81030651735586    1.56349819514933   -2.63733365843277
H           1.59445549588780    2.62360056155632   -3.43718184233791
O          -0.50110180735337    0.37186008005536   -1.78015639495444
H          -1.34322410803271    0.79988668283298   -1.52065414135280
H          -0.54316384309749   -0.51451938550024   -1.36308925343608
N           1.43531670966039    0.99248478682038   -0.05510612792905
H           1.98735613303299    1.78988225287395   -0.35831858783199
H           1.98445790304636    0.10295706715742   -0.05957780853996
H           1.00869010338706    1.09184956359514    0.90490380544301
H           0.64646931094573    0.84843334399662   -0.74854115059835
