    26
        -50.45144824  Gyration_radius:  2.52513924549 Dipole_moment: 6.623
 S           1.26657426947494   -0.69462747685410    1.32100896902426
O           0.96958735005378    0.60223775307883    1.95146766789153
O           2.22669748673869   -1.49021094904744    1.99862501231697
O          -0.10518356632016   -1.46409436045440    1.27867662432980
O           1.60354617882680   -0.46119581512110   -0.10509521162166
H           0.54000209060211   -0.01752670776482   -1.12253772842066
H          -0.77322543127356   -0.74113365407939    1.12061286444806
O          -0.16809071286892    0.37747351893891   -1.72036996720712
H           0.22729631868029    0.43523404898754   -2.59182013163412
O          -1.14207775523997   -2.35163585915015   -1.17042831899773
H          -0.87869497325862   -1.54213302564373   -1.62533978863023
H          -0.61705221223346   -2.37695823721864   -0.35711879842379
O           3.11517366947034    1.66345034232893   -0.44488297665604
H           2.69698501921389    0.77239664248678   -0.37955170429658
H           3.82556415877413    1.66286095725921    0.19854922345865
O          -1.85056634742648    0.31393830232556    0.51661775493198
H          -2.62172192057617   -0.29344526704282    0.46464400534902
H          -1.56187130457891    0.41291159215554   -0.39964645469749
O          -3.49129793686697   -1.73383555865665    0.02508540471512
H          -3.65898020811604   -2.37617452110614    0.71606662189659
H          -2.76060220788610   -2.09992162605296   -0.51834301955351
N           0.60895890178916    2.32324274222467    0.15301626749064
H           0.07758526811617    1.87067775400461   -0.60353890061130
H           1.60766243614202    2.40422040723048   -0.14426407590482
H           0.19738114461575    3.20539296463723    0.43474553314968
H           0.66635028415011    1.59885606249676    1.00382109763181
