    26
        -50.46616742  Gyration_radius:  2.52744926246 Dipole_moment: 7.226
 S          -0.53803776302031   -0.17635266075789   -0.26088351772456
O          -1.53813311754145    0.04233707956272    0.76106795698181
O          -1.25221163189713   -0.62024388391836   -1.55590868625119
O           0.19284466496658    1.06222928326448   -0.55152893730909
O           0.40679336091454   -1.23677390040441    0.11735759189834
O           1.89976024053173    0.66951674895796   -2.63830770773020
H           1.51211627788191    0.88090235516326   -1.77102575420941
H           1.36605311818250    1.18211570785343   -3.26087137818624
O          -0.65639583075786    1.82524360618686   -3.07398290461695
H          -1.34636921450147    1.18147775282750   -3.24859798589793
H          -0.45598548556177    1.73791521401217   -2.12923002970625
O          -1.81844591141359   -1.27273130529367    3.01389278364857
H          -1.85420942631766   -0.87239767089054    2.11327525669000
H          -2.54585896628817   -0.88793178908508    3.50530724983656
O           0.43023297615260    1.85079674778173    1.94294323526695
H           0.44079392854543    1.67810941486617    0.97343855863999
H          -0.47568424774904    2.11092407457085    2.12827791321127
O           0.80391519437328   -1.73417543966322   -2.52848847704863
H           1.34241652937795   -0.92806065264688   -2.73256414703743
H           1.04182903289377   -1.97868088039909   -1.62395483431623
H          -0.52936294063667   -1.11102867309743   -2.07726244141549
N           0.74247533633633   -0.69122829969029    2.61529757835190
H           0.72573648464715    0.36293555992658    2.51920120106631
H           1.55509129581689   -1.03119859389234    3.11777563608812
H          -0.16010609244156   -1.00104487419962    3.04246845110353
H           0.71074217744664   -1.04265491119723    1.60230337863597
