    26
        -50.45639402  Gyration_radius:  2.45701575979 Dipole_moment: 8.631
 S          -2.24272251846463   -0.37179077974456    0.13801631069547
O          -2.09776659440215    0.27772750063371    1.42943527017498
O          -3.55068483925471   -0.78766275120981   -0.23250150843206
O          -1.71132794307323    0.67996825787282   -0.95046618662308
O          -1.23266756834094   -1.46100761026672    0.01687171632860
H          -0.23934311522349   -0.92814411522715    1.10110689948008
H          -1.73836854574255    1.54696306313323   -0.47090429713118
O           0.44695154422566   -0.57292509069625    1.73666666659421
H          -0.08541472027008   -0.30690764526649    2.49233354332395
O           0.77979217972730    1.14009808593054   -2.01125205496435
H          -0.18857014373941    1.18711808289562   -1.98147379831969
H           1.06314833762514    1.48924871430294   -1.14432675535073
O          -1.45393001388161    2.68533709495201    0.66835716134472
H          -1.78680638359258    1.97023361945782    1.24864910327691
H          -0.48877455351184    2.65052128249175    0.73233591281223
O           1.22456671576830    1.72510658073554    0.61919887609807
H           2.07606459395424    1.95693960332057    0.99222473389107
H           0.94982843433439    0.87572865337347    1.04250276363118
O           2.36856165123822   -2.06424723587131    0.50584466326179
H           2.35675493686211   -2.95364011998480    0.86357408942228
H           1.80481353688587   -1.52834999257793    1.09357210894165
N           0.76505095800746   -1.45911788247315   -1.60427031025228
H           0.71547935305440   -2.05782068656241   -2.42051798315253
H           1.52282963719105   -1.75398069363666   -0.95285941855618
H           0.89198013708366   -0.43658708001245   -1.87487572087038
H          -0.14944509645783   -1.50280884555978   -1.03724179561699
