    26
        -50.46826604  Gyration_radius:  2.43398966994 Dipole_moment: 2.830
 S          -0.57295775318679   -0.36897974080966    1.27934817522316
O           0.19100552509354   -1.25004648294728    0.38505426035705
O           0.29230712218270    0.34759985284473    2.18519416095379
O          -1.40244371148868    0.55342729272482    0.49426976331277
O          -1.53260995944974   -1.26886967779778    2.10038681460066
H          -1.91689318900499   -1.87263295484199    1.41420728197360
H          -0.39838762077155    1.80798650913709    0.18103879593306
O           0.35744853431513    2.41728219108003    0.00452339887350
H           0.62251322714566    2.73373388807399    0.87160003806263
O           2.93844230253488    0.34828410927979    1.90956211007245
H           1.97601420987548    0.38850401256668    2.11045488841094
H           3.29647567866053   -0.32307287463500    2.49186048221046
O          -2.04560396507494   -2.64324735279703   -0.05971964883207
H          -1.08270696914350   -2.55349152207129   -0.12635796908491
H          -2.38430598094900   -2.05473523961687   -0.75626080184449
O           0.14917904018099    0.67917580315000   -2.57038921443707
H          -0.63540734321109    0.12513241891637   -2.44940830441118
H          -0.08871222942132    1.54470645415205   -2.22901461459208
O          -2.33754018758647   -0.44703475232094   -1.71225461120300
H          -2.01029532581388   -0.03712502301050   -0.87329533663571
H          -3.14836490345214    0.01251156653592   -1.93693566935149
N           1.98365705174707    0.37204794151929   -0.56781255896520
H           2.31205360839957    0.24791402764524   -1.52124530151028
H           2.71151590586456    0.34880231916307    0.17121479842014
H           1.44778214771510    1.27592056282523   -0.48145678205670
H           1.27783476486118   -0.38379332879088   -0.31456418548132
