    26
        -50.46660361  Gyration_radius:  2.45492781465 Dipole_moment: 5.927
 S          -1.38344913290654   -1.31900875246398   -0.46290205540528
O          -2.56374721431148   -0.56728479058243   -0.83506466704533
O          -0.36748793649721   -1.32431946594211   -1.49733736917327
O          -0.85535015316403   -0.92922730537115    0.83812006660383
O          -1.85821897569291   -2.82337901882289   -0.27978850228410
H          -2.41047764942443   -2.95477217751435   -1.04296506243548
H           0.09088695287237    0.12876300375408    1.62656778182484
O           0.66729384080511    0.79830127861775    2.06881457322120
H           0.48320424545273    0.72491768268605    3.00615784895662
O           1.47621009117966    0.57031830691089   -1.60181900882904
H           2.10987539049442    0.20326591153886   -0.93297470095896
H           0.79637802846382   -0.13036509522435   -1.71022288905543
O          -2.30852350184602    1.99333369647384   -0.51537837477197
H          -2.41557608277277    1.02958789395473   -0.72383845615524
H          -2.95330391296441    2.17387734770055    0.17089697663193
O           1.17815528726081   -2.61468429573220    0.34199940452978
H           0.41050131047340   -2.17194480273846    0.73757408348529
H           0.97844339731500   -2.60336642002125   -0.60104435363579
O           2.73921763773061   -0.41010356195405    0.50668653781459
H           2.36558610832387   -1.31651162801386    0.48510104716614
H           2.25595011426201    0.04368167869446    1.20939197595939
N           0.31258301383751    2.33248755421588   -0.14951862382882
H           0.81452649017737    1.63248467583173   -0.84514475015927
H          -0.72366460699731    2.27163156000882   -0.31826094612373
H           0.51022785818775    1.98304589416264    0.80338944952282
H           0.65075935963495    3.27927083981763   -0.27843998585534
