    26
        -50.44306476  Gyration_radius:  2.59403875751 Dipole_moment: 5.475
 S           0.15200828429436   -2.36639048417453    0.34524900003449
O          -0.35253572246332   -1.39922298238729   -0.60524099125170
O           0.94713790439304   -3.40708861888888   -0.19045820295469
O           0.91764508689194   -1.56742501517242    1.45244652470260
O          -1.01163637368550   -2.93544438850315    1.16896821078435
H          -1.35883743577096   -2.18313899006476    1.74357016597290
H           1.69153751485104   -1.07203735948358    1.04532717096852
O           1.28446028385665    1.96221168379949   -0.17397017653402
H           1.56937616473889    2.85742599877657   -0.36098369626684
O          -1.12339508833562    0.80567173449210    0.60204602029855
H          -0.32081747945757    1.35101833104554    0.56662723657387
H          -0.89468807715396    0.00248267479049    0.08101484760477
O          -1.59634735061287   -0.88772406669471    2.60892777891171
H          -1.54668122745468   -0.14901152693804    1.95949777053188
H          -0.78807178532373   -0.84398850947332    3.12668866865078
O           2.79924342989833   -0.10383909780978    0.50316122337073
H           3.39736697105664    0.16078016095049    1.20515309169471
H           2.28917422628240    0.70054202428762    0.23864233821157
O          -2.39988302894697    1.77317770157813   -1.66981355211618
H          -3.18881854389006    1.24799000623569   -1.81071414324652
H          -2.07648409664201    1.54021919371008   -0.78100381858496
N           0.31762796980243    0.87780532947255   -2.32293824160832
H          -0.60811783033766    1.28677783707820   -2.44007609057610
H           0.77575427817052    0.85154691577703   -3.22406586559836
H           0.94383426733370    1.57682719943414   -1.06188502569265
H           0.18114768850921   -0.07916575187178   -2.00617025387594
