    26
        -50.45884945  Gyration_radius:  2.47644916763 Dipole_moment: 5.650
 S          -1.04211359631115    1.54253064993470   -1.02918604892470
O          -1.38166698137553    0.82162627074876    0.19480344224691
O          -2.17061626587241    1.82974172303342   -1.86308563837970
O          -0.46127089227554    2.95988242801673   -0.52883745636165
O           0.07542052109221    0.92120290997692   -1.72175838008380
H           1.21074076376520   -0.04732205283146   -1.34589418021886
H          -1.22162300685924    3.53400970101612   -0.52209061914678
O           1.93002353194389   -0.68414763168042   -1.06212233191977
H           2.53612030924874   -0.73579517526366   -1.80264359853825
O          -2.12740160162012   -1.02759090052442   -1.53761981191374
H          -2.06710232949937   -0.33909653268599   -0.84683575188444
H          -2.21524848456426   -0.52631514173618   -2.35226174206312
O          -0.79023391466389   -1.12943301468967    1.93261731766139
H          -0.04196537380525   -0.76939881436059    2.45284093387810
H          -1.15308687162162   -0.35304460907688    1.46442778454785
O           1.68695534379775    1.56081586325680    0.77342491000484
H           0.94120622714524    2.00371252205579    0.35370360839842
H           1.94680745001213    0.84584341540496    0.17755853867553
O           1.31491549401708    0.12781998872487    3.01304600530034
H           1.42026299135583    0.76248184601769    2.27095305124788
H           2.19973430227774   -0.10301678650883    3.29731275012701
N          -0.10444704116913   -2.27273349484580   -0.27541867958695
H           0.78837741663079   -1.82799560680412   -0.57569042174871
H          -0.86825798012400   -1.92705772659740   -0.90303863828124
H          -0.05108524645880   -3.28481552348274   -0.28060697542409
H          -0.35444477499135   -1.88190431705817    0.71640193233409
