    26
        -50.46935584  Gyration_radius:  2.47740871031 Dipole_moment: 3.248
 S           0.32890521541066   -1.27283154293478    1.22530806081098
O           0.67411376884236   -1.22819713447062   -0.19346371845486
O           1.45904385723237   -1.07575960288774    2.08873423127845
O          -0.77183752548505   -0.34172314640002    1.49712721315863
O          -0.24156929862365   -2.71831918548645    1.49261489559134
H          -0.96482623233087   -2.79639863504854    0.86436782261469
H           2.06325590715256    0.39670589057455    1.66370431211547
O           2.36365971534859    1.29208100526948    1.38009002273447
H           3.05533816333417    1.54281945669757    1.99544517824466
O          -0.20196977377834    2.22478349596218    0.97627893599663
H           0.74912651408889    2.18332736917202    1.17262787431859
H          -0.56104425779917    1.40739130243661    1.36991935442289
O          -2.43326444332019   -1.58883397796891   -0.00031660268098
H          -1.85884986346794   -1.01844857577733    0.57355170771841
H          -3.29633433907889   -1.59973934509700    0.41983022800839
O           2.54481895136516    0.66026626704253   -1.35724772929730
H           2.66690788249737    1.04930284836996   -0.47823241685713
H           2.28402406862246   -0.25078327033928   -1.17855064081443
O          -2.40402784262139   -0.15702956890416   -2.32914036397573
H          -2.34395155640274   -0.77735947864084   -3.05710431950550
H          -2.46942305265649   -0.69797922693173   -1.51475787712374
N          -0.14583749974347    0.97960483715477   -1.35282230225881
H          -1.01009805015955    0.82405973923257   -1.90143731206958
H           0.67269153326831    1.25741503942102   -1.90346760623007
H          -0.28023575297066    1.65064231261302   -0.54521217057668
H           0.12138389118904    0.05500311689298   -0.90784679726810
