    26
        -50.43224179  Gyration_radius:  2.53796671128 Dipole_moment: 6.083
 S          -1.28626217955637   -0.59082877965416   -1.86552014642372
O           0.13563466681260   -0.52314292425444   -2.02223101334870
O          -1.86841205633597   -1.79612545032974   -1.39730839191860
O          -1.74670110631758    0.57365584059160   -0.97500481804856
O          -1.91593552219275   -0.24009118262874   -3.26911279351500
H          -1.22602898000856    0.19963346434768   -3.76032829982755
H          -0.95721220033435    1.24942202165951   -0.86517048009600
O           1.01018016981336    0.94561552779351    1.74197150924425
H           1.21156346298273    0.84481219521340    2.67304224854615
O           2.84017243022827    1.49403872415175   -0.41030380150273
H           2.47416091582472    1.28104884577857    0.46083911953639
H           3.54835015614432    2.12475449533253   -0.27461541216328
O           0.17796834344120    2.11063128720195   -0.58192663430959
H           0.98528641212840    1.77692078745995   -1.01175186872676
H           0.34290826928980    1.95246467144870    0.36551494547768
O          -1.33359236492070   -2.41913290660089    1.29487790355512
H          -1.68521166526573   -2.43079518233751    0.39481227340728
H          -1.64715842159192   -1.58756253032459    1.69041842434055
O          -1.76943981866217    0.26830870238006    1.86860071539695
H          -0.85649381647489    0.59334413707790    1.89250999949048
H          -2.09932733762647    0.45782190795259    0.98400546890111
N           1.16975698724520   -1.33846911082505    0.58312582294617
H           0.37734044642227   -1.90408366981386    0.90820759748507
H           1.01336045291256   -1.14642990094884   -0.40310191638164
H           1.09537085825337    0.00059789633690    1.31575168659353
H           2.00972189778554   -1.89640885699481    0.66269786136626
