    26
        -50.46642046  Gyration_radius:  2.59567422124 Dipole_moment: 5.580
 S          -0.72889442485739    1.04523174351384   -0.05893609402615
O          -0.71185760822914    0.62850912388332   -1.45480286093355
O          -1.96011257895572    1.66171948321845    0.36096183589738
O          -0.34905629188548   -0.08821759597544    0.80883446766936
O           0.42662682232621    2.09495543708184    0.06150804371519
O           2.06963903141374   -0.13998652613676   -0.23259224784932
H           1.20822866857121   -0.21992087833702    0.22684053444555
H           2.13009629194604    0.79899084727546   -0.43100047354324
O          -1.64720432101766    1.14450875895909    2.91475008857320
H          -2.03625275082835    1.33671214412890    2.03574055342846
H          -1.09174534640852    0.37587470358603    2.74647914950291
O          -0.80017222974633   -2.63948724034629    0.41119913470080
H          -0.10434850476153   -3.08198865117479    0.90152979940371
H          -0.73455273477871   -1.68520389871103    0.65429798461612
O           2.27778142667341   -1.77002947614414   -2.31038709090352
H           2.31291131626984   -1.21714595760693   -1.49070870799831
H           2.72167125668803   -1.26232684295349   -2.99132496430917
O          -0.09613262126610    3.20021570643143    2.34004259033240
H          -0.72403362814647    3.90235155047582    2.15467451394325
H          -0.62776772809159    2.46930379591614    2.74812071325978
H           0.29276420522366    2.55977799157366    0.93669388327429
N          -0.37464850919221   -1.84711340465086   -2.09212671250805
H          -0.57936734519521   -2.35319002305829   -1.19406076931947
H          -0.96623529354812   -2.16941107405903   -2.84926824518280
H          -0.55512893085270   -0.80709063395477   -1.87914536069544
H           0.64779181863686   -1.93703906286093   -2.31731975548078
