    26
        -50.46734464  Gyration_radius:  2.52234796292 Dipole_moment: 2.307
 S          -0.60721388250533   -1.87523753380417    1.40125588424996
O          -0.09283549180413   -1.06481653822163    2.48178921942491
O          -1.95043686738045   -1.51925904947083    0.99524875673497
O           0.30177875213303   -1.92873825686745    0.25018218222200
O          -0.65857848733474   -3.36793857896607    1.93524931370372
H          -1.18067125784015   -3.26799923154275    2.72409069857636
H           1.63098539479900   -0.95010971947511    0.15104982619206
O           2.32193414867715   -0.25110590566791    0.06513462457286
H           3.09350161380889   -0.57793052688836    0.52927513123000
O           1.39368917685730    1.02082027521926   -2.21812871287660
H           1.05929737825104    1.86423197653797   -1.84666812286402
H           1.97426352280612    0.64712649942028   -1.53637660865786
O           0.40605711504787    1.25831945647793    1.34236482710098
H           0.18487644384120    0.52378328895297    1.95265636792494
H           1.20421000378974    0.93283985069181    0.89135043562851
O           0.16184643399890    3.00654001558718   -0.84122492802422
H           0.33284363145709    2.69951831126971    0.06057464286671
H          -0.79310077782470    2.99701628068052   -0.94336698873701
O          -1.96598670380476    0.93725528588907    0.05871994929126
H          -1.18405951940295    1.22451420283991    0.57362430728836
H          -2.22986274462306    0.10152940337643    0.49751517162490
N          -0.69175801864864   -0.49404315878879   -1.73653945324736
H          -1.19761347478877   -0.93729642299762   -2.49432770938536
H           0.14536652522153    0.07617405452318   -2.08134578182802
H          -1.31859926055479    0.15107529394831   -1.16416685304060
H          -0.33993365418786   -1.20626928271496   -1.04793618997998
