    26
        -50.47100362  Gyration_radius:  2.45419245698 Dipole_moment: 1.258
 S          -1.51358327313223   -0.91464858129361    1.06396332272101
O          -1.25397907419722   -1.46571386811343   -0.25262228396896
O          -2.84997150686860   -0.44346650913613    1.27643581894018
O          -1.31739597358242   -2.13119291991248    2.08947534760215
O          -0.47444996129122    0.06088508494092    1.42307454952881
H           0.70168168056960   -1.20412463901685    1.35401006203760
H          -2.14122654229330   -2.14273915899784    2.56697304699427
O           1.34345939365430   -1.90671873448445    1.15483675734189
H           0.82815005955271   -2.71469599782901    1.13541428115897
O           2.61853233558130   -0.59689046927345   -0.81665860819877
H           2.56323195158169    0.27489106160320   -0.39373388056762
H           2.34056851350808   -1.22180671506741   -0.11628773250064
O          -1.99180268729345    1.91877261260042    0.15364145700539
H          -1.44811436549734    1.37462154411391    0.74420098878238
H          -2.86128064626746    1.51223670022720    0.20789889666990
O          -0.06615858720598    2.19410572947451   -1.70238620049721
H          -0.89168067318088    2.23709809623805   -1.17991966948854
H           0.63919491169807    2.27633395465140   -1.04031216680264
O           1.53793767860938    1.60354429845467    0.48945914329236
H           1.83029856709362    2.14708870423517    1.22238385486580
H           0.82126146501798    1.03949291809739    0.84384196145633
N           0.31366347109595   -0.38860670524899   -2.07269549856421
H           0.19880933026439   -0.78296522669143   -2.99904966348191
H           0.11664784868884    0.65790736908131   -2.06251462478581
H          -0.34549792091942   -0.84831032523112   -1.39011370164218
H           1.30170403482223   -0.53509823334467   -1.69931544786618
