    26
        -50.47230190  Gyration_radius:  2.43601397289 Dipole_moment: 1.592
 S           0.53272241922735   -1.49311644596118    1.39202619383989
O          -0.44671078977539   -2.52736774905634    1.15385016151689
O           1.18080400422015   -1.01863345389858    0.17709366905344
O           0.03225937439748   -0.37773701088918    2.17931764980904
O           1.67489450791010   -2.18402339306585    2.25545617125316
H           1.23511703254197   -2.98063319110241    2.53207594263207
H          -1.28743691316060    0.31855593149080    1.61273567001447
O          -2.09632416023940    0.72410244593394    1.20189135388460
H          -2.73161347218348    0.82445306891351    1.91208759010478
O           1.57499897365810    1.52231746961447    0.75112797464291
H           1.46824152892934    0.56756012502589    0.54655733702761
H           1.39227157183621    1.57584285539546    1.69243066379884
O          -0.65399526653090    2.36243178136050   -0.47110501870590
H          -1.30028780858625    1.96111364136571    0.13527264452277
H           0.21750770121608    2.22439804483781   -0.03341565969475
O           2.18195367230593   -0.06652534580368   -2.07818890052968
H           1.99051463115756   -0.63824329863379   -1.31185689334007
H           2.61106889830432    0.70940696054007   -1.70658733211238
O          -1.81450363500833   -1.23959395331057   -0.70580544468559
H          -1.31387895679261   -1.84866539816152   -0.12456096055491
H          -2.17772857001983   -0.57151347856605   -0.09997230409015
N          -0.45596498736613    0.43099030723562   -2.23257994555579
H          -0.56572481582457    1.30550846551322   -1.62451870553774
H          -0.94157870312843   -0.35076610052642   -1.69846799932559
H          -0.87544192568084    0.55466606520610   -3.14696443040652
H           0.56883568858990    0.21547163654837   -2.30789943756913
