    26
        -50.46691547  Gyration_radius:  2.51870994853 Dipole_moment: 5.473
 S           0.17411372503054   -1.19295376301306   -1.04909017150257
O          -1.04426909506485   -0.35708909517751   -1.16972388290178
O           1.24821278932062   -0.66571272008000   -1.85343370174664
O           0.53583747127631   -1.31268802971997    0.36343102920839
O          -0.17716112359171   -2.59636553229583   -1.59005464273946
H          -0.90265405065131   -2.96968136106194   -1.02001775823404
H           1.45784299134596   -0.20701479054351    0.97475820416492
O           2.00857670604428    0.51608013675257    1.39376782832068
H           2.58876611168326    0.06597671712028    2.00979455145090
O           0.07294608793599    2.32288111569429    1.89574593004700
H           0.76509881027805    1.62920092197775    1.84588614735218
H           0.47186312299584    3.07686475195351    2.33225188716748
O          -2.08160113595706   -1.10408420481028    1.13921389468620
H          -1.86842217644166   -0.70190786710841    0.27214610649550
H          -1.21518072814862   -1.21113026398034    1.54888978537857
O           2.24891401195353    1.63536791619282   -1.12983102811147
H           2.04742621633137    0.77448527096266   -1.56571884941957
H           2.47455007705722    1.38545489214850   -0.21947480723548
O          -2.18835999405770   -3.40714564789322   -0.14291354184801
H          -2.26530469368327   -2.63097706718322    0.46807595699830
H          -2.97267468418265   -3.39623662404334   -0.69526716257917
N          -0.29586021237446    2.09643239339687   -0.76856170737898
H          -0.67556400066227    1.11778094103300   -0.97364133129053
H           0.75136650346401    2.05747859600931   -1.00755576018949
H          -0.78950619516360    2.79418807938692   -1.31379221947891
H          -0.36895652475269    2.28079520431106    0.25511523336303
