    26
        -50.46642036  Gyration_radius:  2.59583245594 Dipole_moment: 5.581
 S          -0.30538605444349   -1.03805706221981   -0.67340441355935
O          -1.21725427069230   -1.60659524027276   -1.63124087898451
O          -0.49623013886374   -1.51164174442131    0.69107292865301
O           1.15249149580456   -1.46885971492269   -1.04840054753329
O          -0.31915040186812    0.43876329622241   -0.69964950951310
O          -1.66915509682586    2.06205822601247    0.85347018738366
H          -1.15520880199196    2.87217118791169    0.85249651206858
H          -1.25593895443200    1.48140411202883    0.17070822784099
O           1.87077981461910    0.53015793206521    0.76086066468142
H           2.25262406650951   -0.29467539117246    0.44692693298298
H           1.05989297950728    0.62525475546061    0.21972149711343
O           1.38879718024238    0.65653181353690    3.36304857717069
H           1.95374536833774   -0.00754367859426    3.76095115639014
H           1.65592358844523    0.70796419856556    2.41192415315019
O          -1.00544219925956    0.34170265639047   -3.37631656906914
H          -0.76929493279205    0.99114185453850   -2.70546850280588
H          -1.33492498034650   -0.41626522029500   -2.84905100539014
O           1.15493492802087   -1.15418291947704   -3.61528142808186
H           1.23059941295283   -1.36056488863708   -2.03935690610503
H           0.81432323119754   -1.97364382213006   -3.98135369387867
H           0.41336414081602   -0.50028970275237   -3.69206054999038
N          -1.10246504059994    0.12661349938774    2.58771713549279
H          -0.19172016377900    0.34264707689542    3.06523874031357
H          -0.88715682821548   -0.60368940295486    1.82624643843088
H          -1.80397552670372   -0.21861396820205    3.23252309247768
H          -1.43417282591741    0.97821214713461    2.06867774074444
