    26
        -50.46562017  Gyration_radius:  2.59839701358 Dipole_moment: 2.823
 S          -1.82516943566426    0.98310109222663    0.87741241310955
O          -0.68193453101690    1.07272706202381    1.76507880323224
O          -2.29040238115791    2.22386808443448    0.33250752933447
O          -1.59878963626384   -0.03606056089459   -0.16244585999945
O          -3.00582508686497    0.39315563819873    1.78135983604792
H          -3.78972525793455    0.77547056980299    1.39915330559983
H          -0.75597483701198    1.05282197858508   -1.11052138395787
O          -0.15436429233220    1.74438458799287   -1.45612593449217
H          -0.64803463333199    2.55947471178951   -1.32748979238251
O           1.60418788207751   -2.39224444517836   -1.92250900144443
H           1.04688586279723   -2.80497667829252   -2.58345516873654
H           1.80169540491785   -1.48855294747905   -2.25341513899753
O           1.69697481685574    1.19498882806291    0.50282639621438
H           1.22544431343882    1.56421120403611   -0.26565901980404
H           1.07902749880352    1.34859263065760    1.23670519779466
O          -0.55798302114426   -1.39638717539711    2.75456007807496
H          -0.59924542548863   -0.44279927425600    2.53803815302103
H          -1.45273379997287   -1.63996054965526    2.99512975741883
O           1.93494940667747    0.21650781303027   -2.51583470385518
H           2.60541426745377    0.58509229334537   -1.93512614302545
H           1.13767617588266    0.74894257729832   -2.37271980759146
N           0.66488033767194   -1.28359763441379    0.34410713835515
H          -0.27918909030837   -0.90273133947024    0.07014897688871
H           1.28122646686389   -0.43838333229540    0.44016496458578
H           0.52980452993076   -1.72150407657637    1.26494051996549
H           1.03120448508783   -1.91614107753801   -0.39683113535835
