    26
        -50.45708719  Gyration_radius:  2.54380995865 Dipole_moment: 9.213
 S          -0.93430119909121    0.68392367668382    0.67913718225666
O          -1.02477378058460   -0.65517311948145    0.09574349381540
O          -1.92042116650702    1.59773827013428    0.18413353141741
O          -1.14154962501330    0.51473143109561    2.22247373591015
O           0.44264477628764    1.19087110781830    0.51321159982109
H           1.71351396805264    0.32767925642761    0.58239656085490
H          -0.43457798105486   -0.10506085022603    2.50468583904994
O           2.49577674340932   -0.30305101054912    0.62922245852217
H           3.27793459536527    0.24826730864459    0.57051503788077
O          -0.20373727235530    1.93948950942435   -1.95058061023835
H          -1.13270546251482    2.03682031385205   -1.70877358889045
H           0.22851516192892    1.82582561702522   -1.08513868174259
O          -3.91359156902434    0.09898684777917    1.35997648845650
H          -3.37279564492329    0.68967172215708    0.81871791608822
H          -3.39751113552645   -0.04683111095125    2.15522025524999
O           0.56900360662372   -0.13826584166040   -3.38718511461123
H           0.32977743668179    0.70578568673770   -2.92498750303995
H          -0.18847737657483   -0.35655930112229   -3.93314867597951
O           0.98176919634445   -0.97701391969657    2.85999365253146
H           1.37948834260425   -0.57220172589342    3.63399119793500
H           1.61212363027717   -0.86787437556647    2.12653661360936
N           0.95023437285624   -1.59690615443081   -1.20389556547623
H           0.07866874390485   -1.25618137185950   -0.64119185519010
H           0.94212106539136   -2.60570144331358   -1.30291796848458
H           0.89432472075486   -1.10541922547067   -2.13719324241042
H           1.76854586222189   -1.27355131761999   -0.66094277724945
