    26
        -50.46885566  Gyration_radius:  2.54386622609 Dipole_moment: 1.914
 S           1.39471817426136   -0.09088901262024   -1.45879832302473
O           2.19603358762091   -1.25066042887811   -1.16627004470846
O          -0.03092696565958   -0.36406456163015   -1.57272517600082
O           1.64049459245183    1.01921029953909   -0.53886303589835
O           1.84189382728076    0.41516563930047   -2.89680098654946
H           2.73565883866708    0.09721810097582   -2.97577190189273
H           1.46113319942952    0.70871581099828    1.03993805523750
O           1.17662388151041    0.48527896141113    1.96128337087923
H           1.47684640683892    1.20480648452318    2.51866859433232
O          -1.46226717361997   -2.74212608439837    1.25895555893718
H          -1.68716534702963   -3.31643306711382    0.52552064045125
H          -0.47722566269444   -2.70718366753731    1.27872370603867
O          -2.49459015834694    2.18398807593545    0.26431085644447
H          -3.30654482635928    2.44155625481473   -0.17325813686303
H          -1.76551973870813    2.37244018545702   -0.37439722968152
O           1.15755310506225   -2.23464381121537    1.11479073523944
H           1.35050756303456   -1.47755464863474    1.68023646944437
H           1.56404219151038   -2.02366031850512    0.25289953469848
O          -0.50391538798388    2.29974218356607   -1.52019863305412
H           0.35771900104944    2.16988397796529   -1.08982576361761
H          -0.63429125544756    1.46225266710769   -1.98473307146476
N          -1.22359870047760   -0.12736608842585    0.78683810180792
H          -1.59162513357743   -1.06436876293213    1.06364187563281
H          -0.45576703977241    0.13735869258773    1.43027969056566
H          -0.79488387230628   -0.23582854633660   -0.16850118916347
H          -1.92490310673376    0.63716167403789    0.74405629220524
