    26
        -50.46357201  Gyration_radius:  2.44867181578 Dipole_moment: 2.230
 S           0.30067942270599   -1.88272172665475   -0.94154820613088
O           0.97737139742665   -2.63424473497324    0.08691882867780
O          -1.10317927525464   -1.63382647867554   -0.70437130622725
O           1.00092731362872   -0.62449007568084   -1.24870916741454
O           0.39974449398594   -2.76003644795862   -2.25710362204464
H           1.09295509299514   -3.36514753262435   -2.01781576588008
H           1.47076071176841    0.28012832319835   -0.02361984602866
O           1.67542485109000    0.88984724885599    0.73411736733073
H           2.62993252483543    0.90678218245089    0.81804629391814
O          -1.06641932538859    0.85040994108320   -1.84333168564628
H          -0.24013557809733    0.32062741653947   -1.74460199900821
H          -1.75222627677653    0.17861380274335   -1.90969074996299
O           0.65484009848391   -1.21792871519645    2.32986683461699
H           0.81440345302288   -1.88075826406173    1.62949042884170
H           1.11107915988274   -0.41978686259341    2.02890929841495
O           0.59866018816450    3.09866010140279   -0.93368573233932
H           1.26036043910540    2.47590149398116   -0.61510950775743
H           0.18698796413290    2.68548967397184   -1.69781993255205
O          -1.85592475744611   -0.72227236454173    1.67703017099905
H          -1.78166954304306   -1.19776786403693    0.82383903123394
H          -1.03808258304726   -0.98909952875952    2.16045795276894
N          -1.07674596842310    1.55207096794848    0.74555799023599
H          -1.49305976662155    0.65975789757143    1.22165538182491
H          -1.15247512348086    1.40943091983623   -0.30031450304865
H          -1.53955569544738    2.41174205940701    1.02119676965697
H          -0.07465320820187    1.60861854676815    0.96063567551986
