    26
        -50.44468143  Gyration_radius:  2.55336274686 Dipole_moment: 5.087
 S           0.18063094152088   -2.21029950333961    1.09114698758852
O           0.45181357315190   -1.20851715372323    2.09805481459879
O          -0.72206534907168   -3.24044851881291    1.45447078678007
O          -0.34664340120559   -1.46618889716285   -0.18479670242251
O           1.50275248873645   -2.77063580856385    0.55686337925131
H           2.12919502488800   -1.97826667504051    0.56094582568192
H          -1.15334764125383   -0.92491599510703    0.05047032228289
O           1.53818495646163    1.48353180022817   -0.32960707990605
H           2.03920955191817    2.23909532772266   -0.63908379225244
O          -2.46399696458138    1.51188537809424   -1.76857989250863
H          -2.65738895494487    2.39890126260960   -1.46056956916691
H          -2.56221512891305    0.92970724453721   -1.00120278986718
O          -0.31781881210472    1.32974707104599    1.69481480686569
H           0.31350301647629    1.54515718796512    0.98373026789575
H           0.00974342976006    0.49106233815397    2.06865740616767
O           2.78777936963699   -0.58717914279367    0.86849862518296
H           2.40632129207194    0.15412080104808    0.34808724260473
H           2.35889473280451   -0.53171007339398    1.73182820874913
O          -2.28407882999852    0.05353079703366    0.62544178932102
H          -1.62051123155522    0.67167750148158    1.06537935864422
H          -2.75525263601315   -0.39603651135051    1.32964980908189
N           0.20793762596198    0.48484051969341   -2.34235601533100
H           1.03700726330086    1.11405981280439   -1.13185668272513
H          -0.71840731110896    0.91053644288222   -2.34357416648199
H           0.54931005013219    0.46984100162317   -3.29472417582736
H           0.08944294391747   -0.47349621764363   -2.03168875421459
