    26
        -50.46288679  Gyration_radius:  2.41136506871 Dipole_moment: 7.057
 S           0.92856004779250   -0.19496837749204    1.75548562479545
O           1.83437081105218   -1.31812731289105    1.70558102578445
O           1.21177863846974    0.82351395716335    2.72135447143238
O           1.06468725826361    0.55160854858814    0.34107576676981
O          -0.48620334087594   -0.63180007002627    1.77081718868296
H          -1.28379340848386   -0.92212489354948    0.48669556363655
H           0.95486581187083   -0.13156856916062   -0.36085265067313
O          -1.82350536813757   -0.99220352620642   -0.36321975783892
H          -2.52844331060409   -1.61039190336579   -0.16709211769776
O          -1.05534784858448    1.88827851206871    1.87238188925056
H          -1.06333395585300    0.91017249042089    1.98937495044396
H          -0.17238684534639    2.08949597573619    2.22020101427091
O           0.69888139513639    1.65282713897939   -2.18668162078303
H           0.74522073803516    0.69657459369055   -2.35220793871402
H           1.37412022853352    1.82281357151394   -1.52120023488068
O           0.57079760732765   -1.07882018365882   -1.69328860101137
H           1.03967031413782   -1.87291033763115   -1.33993279349240
H          -0.36108245548748   -1.22428708296458   -1.46323067574487
O           1.65893796748714   -2.99170018021663   -0.26893913266279
H           2.53557346493115   -3.36986648502356   -0.35076424509222
H           1.69119573783601   -2.42711430289025    0.54695996655902
N          -1.52139319631042    1.68388688043833   -0.68597595958370
H          -0.66302024588932    1.76648621474203   -1.29702310121575
H          -1.81825585269732    0.68526590452476   -0.68596572910557
H          -1.26566292876533    1.90476085179439    0.33881347480314
H          -2.26623127385818    2.29019857541076   -1.01236634791241
