    26
        -50.46104772  Gyration_radius:  2.55420177828 Dipole_moment: 8.964
 S           0.13138156613327   -2.19982154674250   -0.00808071543949
O          -0.91094205023806   -1.47606850378197    0.75659992361794
O           0.17383729830024   -3.59078264036710    0.27538234383001
O          -0.27290592403164   -1.96328248546805   -1.53235992525786
O           1.40911464425257   -1.49145349097051    0.09536853647212
H           1.48592282697163   -0.48676894107475    1.87206186963384
H          -1.19308984679734   -2.28645181896591   -1.58203880664147
O           0.72709061518701   -0.13023082793999    2.35187689638200
H          -0.01612699205746   -0.65302638291622    1.99092311389601
O          -1.35597070030855    0.85313304515344   -0.37680116373603
H          -1.08217197869921    1.49495633389992    0.29795579668777
H          -1.30323023362792   -0.02491219367782    0.06976735417236
O           0.13372543901994    2.26979103920524    1.51975321413343
H          -0.03950317607949    2.80964229642364    2.29206052691261
H           0.39955438713787    1.37159085729421    1.87263459884438
O           1.97851880267458    2.80182542965087   -0.38199575041641
H           1.37118052453740    2.67697432263455    0.37845279331586
H           1.84090609261210    3.69476239124085   -0.70061734954448
O          -2.80889101634423   -2.38325077896285   -0.88352228147489
H          -2.34229884867165   -2.22173973542368   -0.04475967634707
H          -3.34410200333527   -1.60241967770084   -1.04775325819221
N           1.02048993500130    0.52093791657835   -1.47153371882031
H           1.12312152911502    0.26885138141174   -2.44820817420677
H           0.00123091648924    0.69599117939436   -1.22241545990885
H           1.30357313070607   -0.31447631727459   -0.86084174743569
H           1.56958506207066    1.36622914838448   -1.21190893044883
