    26
        -50.47074730  Gyration_radius:  2.49924407087 Dipole_moment: 1.725
 S           1.01418159233531   -1.28863911006156    1.10417319231203
O          -0.36998353379174   -1.67413727934759    0.88741158676204
O           1.83713096794638   -1.41098385127091   -0.07568073197147
O           1.10686699053030    0.03239787612288    1.72370909925267
O           1.60274580959540   -2.31081292115235    2.15959560594438
H           1.02799274449363   -2.19753817384471    2.90951183250535
H           1.62968864921800    0.99218698585113    0.45482507597687
O           1.81424572245100    1.30671926800315   -0.45663217128495
H           2.24120139990952    0.54561258471214   -0.86599308513830
O           0.98190027474574   -1.79552516248685   -2.55018623962203
H           1.36625564092156   -1.68110867853948   -1.65388554585108
H           1.16119665996545   -2.70344145284976   -2.79873412408188
O          -1.33092358243791   -0.96496853948366   -1.47677545202320
H          -1.09569854929013   -1.29662484212199   -0.58361389542113
H          -0.62590784199219   -1.32050928511580   -2.05606259155606
O          -1.93858790501373    2.56462808531195    0.81346878805567
H          -1.51785877681089    3.27609397519215    1.29884514027298
H          -1.87609147321605    1.76705383846190    1.40097485830395
O          -1.44012515522555    0.42569960720007    2.26952064322174
H          -0.46338302237645    0.40813863624921    2.19681031690751
H          -1.70500535234209   -0.39469147732002    1.83722183343572
N          -0.68742706672758    1.56135081586794   -1.32366005172422
H          -0.81713854177013    2.06501637609815   -2.19402290953696
H          -1.22241887986469    2.02176916191219   -0.54258586292782
H          -1.02841959732415    0.54423626740960   -1.42318700415807
H           0.33556283575826    1.52807726506469   -1.05504833763422
