    26
        -50.45445050  Gyration_radius:  2.76631119861 Dipole_moment: 8.368
 S          -0.31054800489573   -1.53399768160220    2.36477064283677
O           0.96672311871349   -1.03903840066127    1.82578746716895
O          -0.32316594833291   -1.71841714684861    3.77102963797418
O          -1.41270785206032   -0.69319661853024    1.84456599820677
O          -0.52793960242763   -2.95166582278200    1.67744481044536
H          -0.72009721316150   -2.77468371353570    0.75232969581200
H          -0.72334871754005    0.82252118591934    1.44999564171353
O           0.08193834527401    1.28377332436016    1.12566460321259
H           0.76717576887176    0.68949568041569    1.49289638344707
O           1.88128754966712   -1.80630129130100   -0.46738816099625
H           2.82406457311241   -1.95348784634406   -0.38795970864625
H           1.55927841465389   -1.61194746166966    0.45237309670499
O           0.25691363802475    3.48272594468771   -0.52631186354685
H           0.26615042537383    2.79898703808832    0.16626527996715
H          -0.40540948473259    4.12301027186501   -0.26263964157250
O           0.29921450641398    2.18486272886449   -2.89577756469590
H           0.25564161019791    2.76195274463926   -2.10371370315744
H           1.03720958568499    2.50015134526214   -3.41882658390729
O          -1.85837485321720   -1.61280736135635   -0.48351524172915
H          -2.77273030152328   -1.87971627151091   -0.58408124096422
H          -1.78286147224410   -1.21178804602168    0.43054880473903
N           0.12985474356929    0.03182872349349   -1.27331217133399
H           0.11223717765800    0.59144335643868   -0.38124937493159
H           0.93328334656290   -0.62950026513926   -1.20315104110939
H          -0.73083121792666   -0.54122651378442   -1.28985088097143
H           0.19704186430420    0.68702209705799   -2.07589486466873
