    26
        -50.46305424  Gyration_radius:  2.56934199898 Dipole_moment: 4.034
 S          -0.47165829938632   -1.34643494386429   -2.00297220937216
O           0.23509306485804   -0.07505262972734   -2.18637431877888
O           0.00704702453425   -2.06105105140976   -0.84949608607891
O          -1.91363260017783   -1.16691858299269   -2.03395242759183
O          -0.11221553893396   -2.22457536428364   -3.27904003150344
H          -0.59601471951758   -1.78906280210400   -3.97439523329661
H          -2.14303976609869   -0.70909215331543   -0.56084655736536
O          -2.23061400217995   -0.41765681562126    0.39080499904858
H          -3.00173262009064   -0.87745574050224    0.72806968599980
O           2.06408380133401   -0.26008838220705   -0.37218821358306
H           2.50904525121782   -1.08560422261507   -0.57290996234165
H           1.42112045367231   -0.13142952630588   -1.11910509299333
O           1.51862060626180    2.28354551400919    0.80792020253604
H           2.05437094447948    1.59996778338063    0.38924091399396
H           0.68340315220627    2.29390349455267    0.29302649489947
O           0.62034309675864    1.38074742378463    3.08205823174795
H          -0.11123376966291    1.95178565903067    3.32126726350463
H           1.06913036118720    1.82664319271184    2.30869467546348
O          -0.76318529592754    1.83530537893657   -0.55780318376434
H          -1.48374831977030    1.34178095351174   -0.15182954482542
H          -0.43330770652033    1.26498542945702   -1.27664157997182
N           0.21295139424344   -0.73351622106490    1.54342531965412
H           0.32952606881334   -1.66456362406896    1.92917016904902
H           0.32658076740739    0.02809354903187    2.27020235930658
H           0.93618289711106   -0.59392975169175    0.78621287629841
H          -0.72711625581801   -0.67032657663503    1.08746127996915
