    26
        -50.45613830  Gyration_radius:  2.54636370086 Dipole_moment: 6.565
 S          -1.51431597134406   -0.45975543775300    0.03701935899983
O          -1.02141363599362   -1.47765295094574    0.98710282813531
O          -2.92567198272225   -0.45043348457005   -0.15033987256563
O          -1.11331416029906    0.91351842744402    0.70209942731626
O          -0.72695019124772   -0.54660469487989   -1.20132786042834
H           0.81201494923112   -0.81055371359020   -1.43661126390898
H          -0.18987296548553    1.15035892076391    0.43613524566026
O           1.80315395408177   -0.92210776467675   -1.44202268559996
H           1.99582633797340   -1.53778133543459   -2.15000711484036
O          -0.29512031086810    3.35778519714213   -1.16058402258739
H          -0.75267817535808    3.86736572081295   -0.48976617142852
H          -0.97631262286964    2.76085600762314   -1.54574977350320
O          -2.14681973079463    1.56226188343488   -1.96065212474299
H          -2.88275588437989    1.32730442951551   -1.38500711082742
H          -1.59359457227612    0.76273321190658   -1.94542283726316
O           0.54703535964286   -3.07837761120387    2.67897329903225
H           0.19508845085916   -3.77123632217375    3.23913642415156
H          -0.20436794553279   -2.72378446982266    2.17985403248725
O           1.31949457401638    1.57541238534551   -0.05882133066107
H           0.89806043061576    2.35636051802934   -0.49386997394802
H           1.61669611309083    1.00960785373884   -0.78205294495885
N           1.46821149246483   -0.96384628315643    1.20410091581229
H           1.80547096899106   -1.64847722899453    1.88314419471498
H           1.85407573036119   -1.10969796880314    0.24614824478008
H           0.38514227676517   -1.14284268151791    1.12230818606442
H           1.64291751109208   -0.00041256820098    1.48621293011993
