    26
        -50.47024496  Gyration_radius:  2.41311220178 Dipole_moment: 1.712
 S           0.58500665495859   -1.77969395248941    0.75086888741530
O           0.77530052179045   -2.18777907919324   -0.62715436026839
O           1.75717803044615   -1.19668467793587    1.36023627514962
O          -0.60063774929233   -0.93780082736937    0.91732446343105
O           0.24030272922847   -3.09603740433026    1.57024607775770
H           1.02852963081089   -3.62445705298326    1.49511716777453
H           0.24877661782942    0.43796541657813    1.51363219049930
O           0.60291426026933    1.31686599547414    1.75521722556623
H           1.43666418696852    1.12090755678668    2.18894292174040
O           1.00509719514778    2.00841718914123   -0.84483237738542
H           0.92635243629535    1.96565333600287    0.12929300312491
H           1.62078545270233    1.27176536862119   -1.07066062726268
O          -2.19239776324033    1.32439810710595    1.16904233745462
H          -1.93377689858508    0.39302387365042    1.24209540604891
H          -1.49984148889430    1.80220164120489    1.64075925294301
O           2.47913107455149   -0.19400752984374   -1.03297932952279
H           1.91693414024652   -0.95685693795949   -1.24782393002021
H           2.65755772560725   -0.33913831104130   -0.09211387146113
O          -1.58022771959759   -1.24954985076434   -1.51991608521288
H          -0.82742887004707   -1.75227873399874   -1.85467202684598
H          -1.41418866017158   -1.25081536425948   -0.55563256864306
N          -1.46042182465326    1.39957328504694   -1.40501004114142
H          -1.51815887490650    0.37283661749419   -1.64313990944357
H          -1.93388532498446    1.97123383828084   -2.09494902752497
H          -1.89481748144310    1.49999159954118   -0.45105849052033
H          -0.42474800104165    1.68026589724541   -1.29283255364913
