    26
        -50.46105191  Gyration_radius:  2.47021254423 Dipole_moment: 5.456
 S           1.66849626955706   -0.67924540059205    0.38920907691102
O           1.18311110081522    0.01412417464001   -0.82840955820793
O           2.93701527281730   -1.29811595097004    0.22074386487625
O           1.73594885815812    0.43101760891782    1.50259018274101
O           0.60757987228556   -1.57245606709813    0.87221258253857
H          -0.48410703322007   -0.50350461827273    1.36126742586782
H           2.17763842289675    1.21860619519901    1.11882901107620
O          -1.16097416474394    0.16496754375593    1.63866403983275
H          -1.10818341504900    0.19310216004941    2.59464675831237
O          -0.18593404953919    2.12721478627406   -0.09959082966634
H           0.35130508776507    1.40394238370541   -0.49789649982379
H          -0.47841884963291    1.74525088253535    0.74359594853387
O          -0.74995619814768   -3.31439885740538   -0.52346747843144
H          -0.12875873699256   -2.79938740618559    0.04515591550083
H          -1.38487816702348   -3.71283966104006    0.07402630142112
O           2.36471932011550    2.83233989532799    0.58447493794720
H           2.40706061069304    3.46730474716240    1.30204615641643
H           1.45536810023967    2.86540041552774    0.22660822241792
O          -2.48245169537535    0.71233193899524   -0.71188949176305
H          -1.89392694161991    1.48576139352078   -0.76789004902883
H          -2.36622632681102    0.40729395741081    0.20257921404066
N          -0.90921108603901   -1.04754429065660   -1.91817838657392
H          -0.90697446557919   -1.08304035069287   -2.93136750942654
H          -1.00081341470588   -2.00482579713812   -1.50192394527028
H           0.01692597430128   -0.64977322483957   -1.55009729146544
H          -1.66435433520778   -0.40352647810942   -1.54593859877664
