    26
        -50.47168683  Gyration_radius:  2.49100337292 Dipole_moment: 3.004
 S          -0.49626713094971    1.35192386028023   -1.79646300531603
O          -0.30995770448587    0.16961517769936   -2.63064177277675
O          -1.80319146258689    1.43981631962009   -1.19657044081779
O           0.58494559844564    1.46431744130672   -0.82026828375678
O          -0.35515825483538    2.59363747505858   -2.76703097703183
H           0.45992466532887    2.39027657952755   -3.21274883583936
H          -2.23638010250931    0.61402517567956    0.10036838926427
O          -0.16887410247108    1.54027535526311    1.74196899790214
H           0.11019941600729    1.66702045202059    0.81192734457345
O           1.21442108309720   -0.57642536747387    2.35646761701001
H           0.71277560590972    0.27480858585354    2.18990259615977
H           1.53171406369150   -0.53101393408940    3.25848485562151
O           2.48754692108481   -0.28224145633679   -0.06449133310982
H           2.24760446346342   -0.40908268721216    0.87142878460410
H           1.97328777564865    0.49837576804660   -0.34883527068889
O          -2.44540120236494    0.13394448252591    0.94210332392540
H          -3.40072221426262    0.13582211018104    1.01643193817933
H          -1.07669174907925    1.20796365497553    1.68648934612673
O          -0.74978844349178   -1.99157264795544    1.04495416434011
H          -1.44655495117806   -1.30753234510581    1.03128919173445
H          -0.06175723387418   -1.64216822484482    1.64003246872775
N           0.64483107518529   -1.77730601529079   -1.18582983104286
H           0.00537471835805   -1.96258026748873   -0.35702299299972
H           1.52355440674165   -1.31875922657002   -0.79515069775453
H           0.85171617401788   -2.62982961333059   -1.69338519815733
H           0.20284860508236   -1.05331064248687   -1.82341039886881
