    26
        -50.46001666  Gyration_radius:  2.60299861427 Dipole_moment: 5.822
 S          -1.40767680595579   -1.36637669292345    1.45675516425815
O          -1.73502726313237   -0.00768421110859    1.87420776929296
O          -2.00025113047662   -1.76383283366444    0.21254316269663
O           0.04900824303595   -1.56206676808370    1.48273039809335
O          -1.99481703463308   -2.32237326064444    2.58286981120433
H          -1.71585468811710   -1.91556267350552    3.39763687298604
H           0.59071310849047   -0.06999780860984    1.50473141969387
O           0.81059285025422    0.89680974914055    1.40548726789886
H           0.17786562561376    1.33073596921867    1.98485746064623
O          -2.92941121149543    0.62695738145559   -0.41105581260950
H          -2.98922686496054   -0.33161827584575   -0.55481339617494
H          -2.68682952668673    0.66305824897439    0.53465870571032
O           0.85955752571684   -1.55659419933708   -1.07096380606186
H           1.73817808415414   -1.18418019236872   -0.91834539671808
H           0.51920952628452   -1.81072211402057   -0.19068013615160
O           1.64818214796034    1.85015933645126   -2.55574706058500
H           2.19212630467718    1.42376775248719   -1.87011366533542
H           1.93255790297351    1.48677519183844   -3.39545606159672
O           2.82491470067948    0.48862806540909   -0.42654921945526
H           3.71107488035276    0.54407981583740   -0.06622802727632
H           2.21722599315999    0.70600406030106    0.30123298233097
N          -0.37890895289047    0.79384358949010   -1.07750413726332
H          -1.43346438665777    0.83888679790478   -1.00738177878225
H           0.04913500361326    1.39795050043710   -1.79521083736248
H           0.01555102601827    1.04359244065890   -0.14880121777522
H          -0.06442505799655   -0.20023986948687   -1.24886049167033
