    26
        -50.44046668  Gyration_radius:  2.47029375644 Dipole_moment: 8.182
 S           0.59643305332538   -2.33712186642210    0.37211464461530
O           0.22346748880994   -1.65800321286132   -0.84405989810498
O           1.11693677582856   -3.64528247282374    0.24977296665497
O           1.59619326547886   -1.41013087633195    1.13767958572176
O          -0.61953706845459   -2.35205085992982    1.32839707240205
H          -0.71607433706029   -1.43156336884901    1.72057432383723
H           1.84358998464918   -0.62330614141143    0.57677098006294
O           0.05645486074639    1.99122677513545    0.80220481050475
H          -0.07072262339953    2.89853100042302    1.07997220736675
O           2.24145592471068    0.80829360497873   -0.05291703405803
H           1.44763909565119    1.32590843426624    0.24128707470601
H           3.00141594042679    1.16300817867307    0.41240515775112
O          -0.63908197254878   -0.01672413978481    2.39535992459833
H           0.12080583324781   -0.09509299969977    2.97648440766688
H          -0.44630018354460    0.73309288721829    1.78107529056269
O           0.89895481935091    0.37776944101686   -2.57678979162271
H           0.61675249431071   -0.47323158329605   -2.21125630832687
H           1.62376167077822    0.65132062902595   -2.00520474731603
O          -2.40047334862598   -0.98548544181243   -0.62250012930408
H          -2.68628592688426   -1.49024523931242    0.14097206257772
H          -1.49744856200772   -1.28854564335422   -0.81954882296669
N          -1.32105941147048    1.59577155542073   -1.27755203331707
H          -1.93429841625233    0.80627708224868   -1.07852505982717
H          -1.86751919363198    2.33456572530523   -1.69917232663910
H          -0.55969467986913    1.85269510206870   -0.07279332010691
H          -0.62536548357872    1.26832345010871   -1.95475101744435
