    26
        -50.46404618  Gyration_radius:  2.46028992834 Dipole_moment: 6.114
 S          -1.19826508400033    0.31495272910184   -0.26306390038173
O          -0.94585723633001    0.23711803195824    1.19510536029130
O          -2.25588241498985    1.24054333115688   -0.57729427566793
O           0.09797451634225    0.96558268322935   -0.85613539586678
O          -1.34040996963318   -1.00646713748862   -0.83624982882897
O          -0.52563340244777   -3.39994087853506    0.26774505989755
H          -1.05326626907839   -2.63807717196035   -0.02395327671488
H          -0.00392445421690   -3.65135707515297   -0.50029377579711
O           0.90038501069147   -1.64008201499270    1.74614877133639
H           0.16492240455058   -1.00192531578030    1.74225965117496
H           0.49639730191014   -2.46426046184173    1.40729916164405
O           0.63116784049377   -2.15919535151745   -2.19288655658732
H          -0.15230211461709   -1.74042636264151   -1.77307423047695
H           0.55799234015131   -1.98612199453897   -3.13192142956000
O          -1.04408640785548    3.50264665350953   -0.37987689670431
H          -0.56538867735005    3.53629201611723   -1.21166533779356
H          -1.64142259566297    2.70850866401280   -0.46741551401966
O           1.98850234277577   -0.63050171216377   -0.40631673066300
H           1.78683602506823   -1.30094941261838   -1.08540489095625
H           0.89547349375032    0.33060070800290   -0.69540144425094
H           1.72663297747988   -1.04950168629725    0.46083101894647
N           0.32456499151688    2.38953436426811    1.54246628425931
H           0.24918676265470    2.82338698373514    2.45731501979142
H           1.29549211917777    2.20917452224866    1.30115771475991
H          -0.23240577100778    1.43421549467423    1.50239886021943
H          -0.15668372940491    2.97625038353416    0.77822658193815
