    26
        -50.46279522  Gyration_radius:  2.52272012178 Dipole_moment: 3.467
 S          -1.74151212405486    0.41626082983804   -1.46496116876711
O          -1.73435377035227    0.29149880814279    0.00609413864858
O          -2.57984751152547   -0.52112845785718   -2.12918724129577
O          -2.30177746741171    1.86483140686074   -1.75963500277614
O          -0.34695165797208    0.41658641256801   -1.93680253587424
H           1.08148252684661   -0.11881855596918   -1.28119645302326
H          -1.77408996953574    2.49289325609149   -1.25745527174929
O           1.82817441552234   -0.54046454430741   -0.79377368731434
H           2.17167635844160   -1.21140568125360   -1.38700241603109
O           2.03925320540538    1.27629869542721    1.41281688321602
H           1.33990859583890    1.83908855267575    1.02885180792036
H           2.32324076814922    0.70013521948326    0.69276196092663
O          -0.06226829929482    2.31866585555931   -0.00922990658604
H           0.26840229522533    2.00111269576139   -0.86023710251751
H          -0.71332614202562    1.63834047778013    0.25654743385062
O           0.89140594654455   -0.25325664096403    3.24041778728366
H           1.43449564847431    0.35747322745245    2.67995002464039
H           0.33049382884575    0.30594209790874    3.77979708422850
O          -0.54098027838014   -2.32338273472710   -1.52342871162740
H          -0.51065845804635   -1.41642634935052   -1.85678671744154
H          -1.39185924539540   -2.64709657415893   -1.82797001860096
N          -0.00349835136773   -1.40015843144464    1.01915400962551
H           0.80191706052882   -1.22434861436276    0.37450244141756
H           0.26232891971584   -1.10168230009248    1.99308079758295
H          -0.78987008852387   -0.78707876131444    0.65736727336097
H          -0.28178623566969   -2.37387988976684    0.94632459090001
