    26
        -50.45860229  Gyration_radius:  2.60301694157 Dipole_moment: 3.682
 S           0.31525401354185   -0.79905700936369    2.39302657468737
O           1.01211042442538   -2.05381360955869    2.45679318086838
O           1.11639662915102    0.35650590076444    2.07812625088224
O          -0.85971275648665   -0.85859462989432    1.48750554166734
O          -0.30963861043596   -0.53664204564760    3.84183802689704
H          -0.45040423942020   -1.40938283736670    4.19874373793983
H          -1.01487480110688    0.75156361018216    1.22636175564399
O          -0.98528105370170    1.70041256702716    0.94923752158809
H          -0.65959541117217    2.16120257878717    1.72582437299442
O           1.00444324929524   -1.54361475528113   -0.23792585036319
H           1.59709706156496   -2.02424736357178    0.35060582993808
H           0.20267035912580   -1.42776942137714    0.31381154161062
O          -2.27179604446989   -0.31044937063037   -0.83815149622676
H          -1.95528711823628   -0.72519340924828   -0.02217031842906
H          -2.35540557935524    0.62329514820924   -0.62723592051173
O           0.69800385215445    1.34514380672808   -3.14078088346669
H           0.32455656465650    0.42182366384070   -3.11659560451356
H           0.01651963124250    1.89734815535777   -3.52620155473977
O          -0.36878747483066   -0.99818597923589   -2.65940084864261
H          -1.16732454724878   -0.79991402760676   -2.13032560202098
H           0.21557562484760   -1.47274357112914   -2.05542472326227
N           1.19272058747694    1.15915917164387   -0.54572999613001
H           2.01952177619468    1.57770619749832   -0.13136766449660
H           1.07847971885414    1.38272238337367   -1.57114143404145
H           1.25738303684497    0.11967437997437   -0.42914345894316
H           0.34737509706534    1.46305045650200    0.00972098105011
