    26
        -50.46815418  Gyration_radius:  2.47591922864 Dipole_moment: 5.889
 S          -0.36501506444022   -0.67080251991760   -0.83947269046205
O          -1.05269680800090   -1.53470213695359   -1.91776884674285
O           1.06840175406229   -0.98442548448199   -0.91163398421538
O          -0.59148262439119    0.73446548998282   -1.15104262749831
O          -0.90177118622563   -1.03367069944881    0.46543609077053
O          -3.19627486665790    1.20578474435823   -1.18192982589218
H          -3.39920344534574    1.64116153136069   -2.01143277177953
H          -2.21821897319277    1.13485188792901   -1.14227379315189
O           2.88450494070196    0.94915012082909   -0.59310462560059
H           3.15109413561299    1.42916316969391   -1.37831341907423
H           2.21742584917911    0.29322499988074   -0.88751489902738
O           0.28405714400725    0.15945219509940    2.49277622130765
H           0.38766133588801    1.04255734707502    2.05629495460124
H          -0.35099853533480   -0.30927959507602    1.90656697949735
O           0.72306808795400    2.08509062407666    0.75750343912515
H           1.61609284366963    1.93746684544379    0.41007283573017
H           0.13176347833837    1.74073762371401    0.06092534746133
O          -3.29657794501824   -1.42580031777906   -0.70175268250232
H          -2.75121348973522   -1.41794914791147    0.09904978678236
H          -3.52559457239781   -0.48588566550818   -0.86212196843650
H          -1.99831481805269   -1.59670744996395   -1.58542939883809
N           2.27182719628981   -1.00151795476700    1.40167212939587
H           1.78088876039516   -1.18661585885383    0.47624604674107
H           2.63416306120416   -1.85394208988389    1.81381445126772
H           3.01676332860651   -0.33379294295629    1.20226302998063
H           1.47965042288396   -0.51801471594187    2.02117024056055
