    26
        -50.47250309  Gyration_radius:  2.48715393037 Dipole_moment: 2.890
 S           1.49102384687556   -1.27695327569636   -1.13516735817849
O           0.31338210008634   -1.69936138903872   -1.88361711084331
O           1.47105708204522    0.14483080985401   -0.84939534066934
O           1.71380129910525   -2.09944883877786    0.03844729084508
O           2.73574075311519   -1.51783713099506   -2.08509276822363
H           2.76769498435752   -2.46806190190531   -2.10655433828357
H           0.65641159447785   -1.81705012885929    1.19647129404881
O           0.02912546891793   -1.58374827441004    1.93017582159436
H          -0.03198753553411   -2.36435722405304    2.48268374229584
O          -0.24265683839591    2.15764497210573   -1.39563392242643
H           0.55554762951600    1.60252378698507   -1.32113608288404
H          -0.45093377912412    2.41760307539932   -0.47963327240906
O          -0.76042689066217    2.30220926657931    1.30796016435491
H          -0.78882470829621    3.05383312028231    1.90025736779833
H           0.08735688197817    1.81098887566903    1.51398276487411
O           1.36318494063360    0.85249660524100    1.72462582904081
H           1.00937766822838    0.03017311537538    2.09404870672322
H           1.58069592337599    0.62918642506589    0.79727696525076
O          -2.09927236121975   -0.09357724149410    1.08283833268752
H          -1.78174696879787    0.80840476281507    1.26953767696648
H          -1.40952826731938   -0.68707718820992    1.43566334840422
N          -1.66931584140066   -0.04590451346184   -1.52185673294466
H          -1.96483646492673   -0.14682637947242   -0.50638485531613
H          -1.21293865771599    0.91153484621152   -1.61400317054541
H          -0.91019645664635   -0.76045434595245   -1.72002449876482
H          -2.45173538267225   -0.16077180925016   -2.15546984339764
