    26
        -50.45741520  Gyration_radius:  2.55590172621 Dipole_moment: 3.431
 S          -0.61275223803287   -2.15769186402176    0.83388681941360
O          -2.00534331756498   -2.10166220035131    1.21882801147177
O          -0.35721406143500   -2.20359524134451   -0.57974529886451
O           0.17508589299227   -1.08746285560103    1.47637164740828
O          -0.04606345558942   -3.51512290110513    1.45486708470089
H          -0.64258219884679   -3.69243030989243    2.17598208162394
H          -0.42499525544300    0.37631488253973    1.66865916523042
O          -0.81432112536926    1.28876019132953    1.74693024591479
H          -0.80137718706472    1.49465642448311    2.68268839217183
O           1.96730252223106   -0.88495139860326   -0.41612042511160
H           1.92978630304113   -1.77683350330686   -0.77270989268984
H           1.42286382030645   -0.93060743792287    0.40350008209963
O           0.29013970278343    2.73795399640006   -0.22752706990113
H          -0.04379519087074    2.25633334752686    0.56060737045094
H          -0.25255172170705    3.52210777397201   -0.31945984230253
O           2.52428356123636    1.60988212010661   -1.74351286040375
H           2.68627986376194    0.78881819544601   -1.26407423792707
H           2.19114455638217    2.23524515476838   -1.09339751936550
O          -2.31516450859869    0.05358667445468   -0.26685971612678
H          -2.34902885697270   -0.82175780554832    0.17208258224484
H          -2.12976792734928    0.67623794013432    0.45058675862192
N          -0.08471968099191    0.43016723692448   -1.65485566409703
H           0.67036100251283   -0.19506001020161   -1.27487196893325
H          -1.00595631448882    0.14595175918302   -1.20775334168198
H           0.14575382096747    1.40083559507810   -1.35848683019516
H          -0.11736799589853    0.35032422555384   -2.66561557375690
