    26
        -50.46192140  Gyration_radius:  2.60611760444 Dipole_moment: 2.690
 S          -0.19686753185279   -1.17886907606641   -2.18045395453132
O           0.99193510016479   -1.97803602574573   -2.28975061777265
O          -1.29598686961309   -1.81302862750161   -1.46683197197225
O           0.04645206895777    0.16254070096236   -1.63629867453001
O          -0.70706407495622   -0.94379993110248   -3.67234965881159
H          -0.07631808324686   -1.44672062823704   -4.17794333261090
H          -0.85522945077667    1.24301122074440   -0.84068815087587
O          -1.44801874649408    1.80717915282844   -0.28328720674765
H          -1.71890269961956    2.53921628796160   -0.83851876591736
O           0.21709265445705    1.87563616643380    2.01616816284336
H           1.14011984697672    1.92864876788552    1.70195685771010
H          -0.33849056248971    2.02643279104783    1.23752449624511
O           0.03432951621717   -0.74886195068143    2.22689824540794
H           0.72384146693817   -0.97097792855318    1.57369331893779
H           0.11880561204151    0.23192790660511    2.34898335273076
O           2.77103257077051    1.47379919140090    1.12447073203132
H           2.54519936104990    0.63616602586708    0.68250629807744
H           3.39727666814562    1.25660975451972    1.81676279783455
O           1.72826374430458   -0.85905805587311    0.08458772646015
H           1.14105517397132   -0.36203995029654   -0.52522049352729
H           1.98897989249219   -1.61535339183717   -0.45320013708182
N          -2.07271716821399   -0.65502130479406    0.72133587901321
H          -2.94506187439976   -1.00456844831881    1.10086937773509
H          -1.80758233947811   -1.17634082242446   -0.17254497360570
H          -2.13314786762285    0.34666691629832    0.48088341019286
H          -1.24899641771425   -0.77515876113234    1.42044730274066
