    26
        -50.46415833  Gyration_radius:  2.45559129287 Dipole_moment: 3.731
 S           1.49532726446043   -0.97784168892755    1.31125577252770
O           2.33799453882038   -0.14837147440302    0.45778498845273
O           2.15162178351707   -2.06613239078716    1.95806883716119
O           1.03038638984160   -0.00402355731590    2.52147579019840
O           0.25421276655908   -1.30801302510840    0.62196735684964
H          -1.03035360332128   -0.50725441994403    1.22958132144371
H           1.55065971462558   -0.41627639807883    3.20151306837796
O          -1.83347651742018   -0.01738791835562    1.52610644489023
H          -1.62329145727475    0.29746403302959    2.40654906979868
O           1.01541708725139    2.11995537580191    0.56484063280706
H           0.96597098356628    2.28833168562543    1.50764385957281
H           1.54166986069955    1.29475831436890    0.48266896655388
O          -1.46344318209669    1.82150902058093   -0.40679059407599
H          -1.78898449720417    1.24361621008924    0.31532777564531
H          -0.56020675274597    2.08072715488175   -0.12027034566372
O           1.74413203549381   -0.08959581893647   -2.09620440414469
H           1.97773779408217   -0.24322914370897   -1.15096294134056
H           2.19364896220410    0.72467264312060   -2.33307115132437
O          -1.84127207638612   -2.11632846695264   -0.78734259108378
H          -1.00299917274664   -2.13012205075041   -0.29003241973140
H          -2.49010169047074   -1.77966981541996   -0.16169452508105
N          -0.93206394390605   -0.01417978017652   -2.17854919187259
H          -1.29035622728938    0.12865855708176   -3.11601969239752
H           0.11804069225394   -0.09059598148219   -2.18803319290569
H          -1.19325055404055    0.80171837497960   -1.52382996158286
H          -1.32702020851268   -0.89238944917145   -1.75198289306095
