    26
        -50.46703719  Gyration_radius:  2.47749640569 Dipole_moment: 3.497
 S           0.18600274896219    1.27991824042332   -1.69747214860777
O           0.21363586208203    1.73201916689445   -0.31108673602006
O          -1.00015433440127    1.65109606589953   -2.41066675127743
O           1.40418160717081    2.04911961306087   -2.39263913361043
O           0.51698467419606   -0.14046540828250   -1.78665701394922
H           1.83116600774979   -0.10830297273663   -0.81918205033124
H           1.09164249216866    2.22075795132246   -3.27570874655009
O           2.46142357629341    0.11933648900248   -0.09497321768696
H           2.35782983921701    1.07275309090990   -0.01221454386641
O          -0.26213454871785   -2.97602344093330    0.88785735440594
H          -0.86282156414038   -2.46190364168809    0.27700498034658
H           0.19953734187158   -3.59727888994673    0.32244566049959
O          -2.40285554155733    1.01615800532580   -0.06097967561684
H          -2.95178839513944    1.28290770082928   -0.80258046547600
H          -1.52480296697458    1.37911108771834   -0.27008349285235
O          -0.56802543012067    1.08864598976747    2.17895693680739
H          -1.49308999547418    0.92631849492528    1.96399435733437
H          -0.21068987284902    1.51843361815719    1.37892057766852
O          -1.56999183631001   -1.49440052148852   -0.80480824129370
H          -2.05859023445910   -0.73412285787618   -0.44409354365446
H          -0.82792247079679   -1.09766160129714   -1.30085218771287
N           1.10484601747648   -0.95614074842073    1.91365541868183
H           1.65019769036959   -1.18908969264099    2.73621854743076
H           0.59296790873288   -1.80922515846182    1.54630284684116
H           0.39589547286316   -0.20289762312985    2.13632381435282
H           1.72655596178960   -0.56906294733080    1.14231747413863
