    26
        -50.45999002  Gyration_radius:  2.65953979814 Dipole_moment: 3.336
 S          -0.11892640797374    1.31690632005301    2.23114171832242
O           0.37128666417880    1.73206432379561    0.93069935678539
O           0.45180756802398    1.98663488795153    3.35658933811658
O          -1.68818269376025    1.71133675934072    2.24461279743686
O          -0.10997078365922   -0.15061796196939    2.31688370215667
H          -1.14685148426887   -0.27208132770237    1.10062034383044
H          -1.74027132491961    2.16568172276101    3.07867306197995
O          -1.71483496835068   -0.28421040549861    0.29040994059589
H          -2.34071494407336    0.42869070913077    0.43623851695502
O          -0.35428613997338   -2.77029827427243   -0.34678038210510
H          -1.05821335734169   -2.18152345661777   -0.04865324928927
H           0.44420002494250   -2.46276469695214    0.10469218142847
O           1.69363445672147   -1.08722061626436    0.69078812886413
H           2.55601649308004   -1.00243352087576    1.09834460841953
H           1.04437667690009   -0.73924099670812    1.35445775167283
O           0.04602375109419   -2.15473672832294   -2.92047495819050
H          -0.07792837767807   -2.57054878803464   -2.03536618630532
H          -0.67307758934659   -2.46612847954061   -3.47075256234805
O           0.67068502694019    2.74256903580170   -1.47583841937585
H           0.48200893678905    2.55605358068174   -0.53177355855937
H           1.48361050766124    3.25005140795489   -1.48358429135776
N           0.36518271955971    0.05664319866991   -1.41556399116693
H          -0.52796314432892    0.03283500703753   -0.86970480909384
H           1.08577593195164   -0.26273936055930   -0.74106216604445
H           0.30490204667965   -0.61576452229165   -2.20480226816449
H           0.55171043115592    1.04084218245192   -1.68979460454460
