    26
        -50.47033060  Gyration_radius:  2.49980589196 Dipole_moment: 2.150
 S          -0.97713386923561   -1.41605659213101    1.04065436314821
O          -1.94067962088199   -1.94272283981563    0.10220326451637
O           0.39820623287941   -1.70352235974373    0.62066688483855
O          -1.16644035604294   -0.01475092864819    1.35627772213462
O          -1.19464604656349   -2.19946951132539    2.40120278811006
H          -1.44656187916952   -3.07274284960776    2.11792288097195
H           0.36013676712403    0.28084427420126    2.53018216813758
O           1.28205994601453   -0.00504549333050    2.48214674097155
H           1.23789193164590   -0.75965386294134    1.87165419113770
O           2.36844969131877    1.93043931386632    0.99667846365603
H           3.31133983800067    1.92399074890721    1.16301366295600
H           1.97822361128903    1.24712767201577    1.59221208724597
O          -1.50230309127158    1.67727855179090   -0.61395610233454
H          -1.38221385604349    1.06331912978326    0.14981346962681
H          -2.04396450138185    2.39812701787861   -0.28899507677326
O           1.14698777902670    1.79338707389109   -1.38086318691771
H           1.64117907427879    1.91500612028078   -0.54136200663164
H           0.21588670122956    1.97444090509861   -1.16208548355816
O          -1.85433615644079   -0.59083064578878   -2.18397261736782
H          -1.95959247139609    0.31360066846088   -1.84797593264065
H          -2.05718026733887   -1.17116335315962   -1.41991763577836
N           0.74224787048886   -0.74490856173192   -1.81620798883028
H           0.71973624432999   -1.19615916669455   -0.86745042040977
H          -0.26689414209989   -0.74059906675642   -2.15729927410513
H           1.03318511235343    0.28354178093564   -1.69495456804558
H           1.35641547786228   -1.24347802538950   -2.44958836403013
