    26
        -50.44714490  Gyration_radius:  2.43509900151 Dipole_moment: 5.872
 S          -0.44331885621797   -1.52854808073402   -0.96414468081561
O          -1.68608201332087   -1.19343079890338   -1.57873595761489
O           0.30364852770222   -2.63278161158143   -1.47067967866244
O           0.44746643878999   -0.25702893751494   -0.97838806227478
O          -0.65877763228391   -1.78719363437710    0.55597034176413
H          -1.13705981098481   -1.00778665825436    0.99523681378481
H           1.39517217871775   -0.61562275705089   -0.83622809247630
O          -0.82237153268962    2.29734591079531    0.28719777987090
H          -1.19482073389438    3.16547726909216    0.44942504572405
O           1.39605914721309    1.08677804656613    1.49981604451623
H           2.19294005504318    1.20689510908082    0.97979596506432
H           0.68144718829749    1.49532288514249    0.98400714548401
O           1.76317787133486   -1.61298019582012    1.94275866697431
H           0.89994619034717   -1.97582769872950    1.70595731948787
H           1.63957527760490   -0.64884431798517    2.00155320742641
O           2.60048812982953   -1.49896125740117   -0.56702493297130
H           2.51430926989384   -1.64528989757808    0.40791702576705
H           2.19213087396682   -2.26861555316156   -0.99008352336041
O          -1.60117988450125    0.24021504875240    1.78601300265158
H          -1.00073242670414    0.31481199202473    2.53346154825780
H          -1.40701763809941    1.01724346643300    1.21085850239120
N          -1.67076173465356    1.58946621864936   -2.09449730648055
H          -1.09622492962708    2.03404535741510   -0.64881460106886
H          -2.56927950599769    1.91558199246795   -2.42946608647524
H          -0.99408360178663    1.72914474672715   -2.83436395629897
H          -1.74465085844620    0.58058335585658   -1.94754152066895
