    26
        -50.46312990  Gyration_radius:  2.51276857524 Dipole_moment: 4.584
 S          -0.40060816715768    0.87468913550833    1.99640066171169
O          -0.82506044820208    0.87957300923026    0.60318462379446
O          -0.11599158393355    2.15677534123829    2.55228953495001
O          -1.66935752114523    0.31408711034812    2.81503688111202
O           0.64615471404353   -0.13526353716785    2.19378684596369
H           1.63427259121823   -0.39615187987969    0.96141146889393
H          -1.80661711362157    1.02961574639311    3.42651929824666
O           2.18754928753516   -0.60973573238106    0.16306973343147
H           3.02299953433319   -0.93344383805092    0.50327511062130
O          -1.54341693159042   -0.01667600635101   -1.82321008345493
H          -0.99795562900687    0.54039925445095   -2.42771581373450
H          -1.51075216612096    0.43326186174036   -0.95938749928435
O           1.26758422140810    1.87876086194484   -0.75527455505976
H           0.48151047425602    1.70627743379760   -0.20456169683908
H           1.87020349384111    1.14920624977340   -0.55905368811300
O          -0.95757326624665   -2.07266109810716    1.51557819027346
H          -1.81651322273778   -1.67556587942014    1.67893317548519
H          -0.31864326502097   -1.42037341537606    1.88523658122037
O           0.19611647013072    1.49959912691502   -3.14895484233257
H           0.69180564536787    1.69570516909264   -2.31516654482696
H          -0.08313098249284    2.34816828459374   -3.49476047136625
N           0.02373974422069   -1.87445904154081   -0.94244384425031
H          -0.62599257286716   -1.14282429874890   -1.42158992248801
H           0.14099988649039   -2.70806933660608   -1.50686597068499
H           0.93633082963920   -1.43091592483192   -0.72526782601394
H          -0.42765403220231   -2.08997856773035   -0.01046934714829
