    26
        -50.47076092  Gyration_radius:  2.39809547686 Dipole_moment: 0.847
 S           0.52328632398545   -1.69144987582515   -0.31199069936569
O           0.86844903381603   -1.06454136531759    0.96221619244601
O          -0.90048839116023   -1.84245128674887   -0.48927390196589
O           1.17889166327947   -1.01358877824228   -1.41814431371733
O           1.12041479779757   -3.15292768305982   -0.25075590009654
H           2.03268061217042   -3.01051778847116   -0.01991758086136
H           0.48157070861633    0.38390955710001   -1.88583124419591
O           0.05228220456701    1.24094158070926   -2.12864349074749
H           0.17510830467018    1.34111903889258   -3.07383988330528
O           2.71265865125208    0.69123915395159    0.17872109519230
H           2.70596511146034    0.38592445721691   -0.73428237283134
H           2.13808563695086    0.05251176281137    0.64146208022292
O          -2.23950921910224    0.48599325081733   -0.81989996284476
H          -1.61167052267874    0.90547744810877   -1.43251932292043
H          -2.00261145871011   -0.45773582563555   -0.82603612359864
O           0.84856505041036    2.63174635938428    0.16039781211687
H           0.53726342639178    2.42826434950280   -0.73561008370640
H           1.67276389795918    2.10600453535641    0.25673847642829
O          -2.02295066276272   -1.43341032843973    1.95525154790833
H          -2.60963547620628   -2.15492002952310    2.18458916012164
H          -1.62752747470754   -1.67284556548435    1.09982181930575
N          -0.81426364378781    0.98436908308247    1.36371856066028
H          -1.55036173909486    0.82669228563879    0.61744730664147
H          -0.22675997185253    0.12101518076669    1.39065082024179
H          -0.19182003386138    1.78614544307392    1.04694322278440
H          -1.25038680939786    1.12303504033564    2.26878678608753
