    26
        -50.46717362  Gyration_radius:  2.47712584481 Dipole_moment: 3.767
 S          -0.85525262886299   -0.04812069714756    1.84853000336409
O          -1.19696367355223    1.35206382711106    1.87493229687963
O          -1.41142196886414   -0.79544253541204    0.74321451404787
O           0.59644954192630   -0.26516295725135    1.95361355670518
O          -1.47219338800141   -0.67570854699800    3.16949531762043
H          -1.49047085912762    0.08757861258589    3.73595085957762
H           1.55376563699317    0.39219944272016    0.87181426722006
O           2.12557032922801    0.74126776243423    0.13499344288274
H           2.96334121244303    0.97515428150779    0.53747923478244
O           0.01883123727915    2.58476629718295   -0.16383901027371
H          -0.48458204003198    2.23930444014732    0.60022785854430
H           0.86146300822233    2.11029476460440   -0.15851884318252
O           0.58105945742136   -2.63282034300220    0.83337212801733
H          -0.37826620230496   -2.65564624879294    0.73104642878088
H           0.71562796318521   -1.84021631981203    1.39847141619497
O          -1.29185503780519    1.88626915329098   -2.35140909698253
H          -0.77745352523296    2.21898223504355   -1.57409453152031
H          -2.15930197748194    2.28674462656368   -2.28016136514621
O          -1.20007854312193   -0.72390464247137   -1.91987528154391
H          -1.47508852130051   -0.75839238549830   -0.98257260302358
H          -1.26983296512959    0.22707924341429   -2.18026190781643
N           1.23948094804560   -1.34758129885491   -1.38831030602385
H           0.23789327227178   -1.06980356036410   -1.73483183698745
H           1.78523839678195   -1.78879166726029   -2.11922966397606
H           1.70891896834544   -0.50291460026903   -1.01637486729489
H           1.07512133874629   -1.99719888357771   -0.56366203091322
