    26
        -50.45595551  Gyration_radius:  2.63340315406 Dipole_moment: 3.368
 S           0.66837021868731   -1.74096799994905    1.94916641521039
O           1.36517472205065   -2.54061431901346    0.96676169509174
O           0.52100656844431   -2.29359816546832    3.25499097324543
O           1.61692686918911   -0.41623185124395    2.15506793700282
O          -0.55171769001887   -1.13665278931977    1.38531218908012
H          -1.31938997748123    0.31022314265171    1.30269395979235
H           2.17329085483461   -0.69629105375538    2.87496530999975
O          -1.68848995291487    1.20644314705981    1.12379330461351
H          -2.45813107378893    1.29905357354133    1.68653509445434
O          -1.53330726125146    1.24306651091394   -1.67526043188375
H          -0.61015111278863    1.51553985165363   -1.76885328094975
H          -1.71511278300444    1.26973240647022   -0.72168222351007
O           0.92485815416298    2.06802896319447    1.11447762112396
H          -0.04278804326077    2.01042514040116    1.18974118152350
H           1.26155266460286    1.27935291768201    1.56662388661435
O           1.28746408767616    1.47954828518645   -1.40466476610105
H           2.03910232706716    1.94099305817453   -1.77637241577711
H           1.20116794329181    1.78680734016869   -0.45947026345644
O          -1.49060145317946   -1.18712987535011   -2.80352095142566
H          -1.63262189029231   -0.25407141472196   -2.52068571670259
H          -2.32252235583876   -1.64255027686365   -2.67001478386224
N           0.47771202844116   -1.10106601270641   -0.98939415941430
H          -0.15212151112629   -1.37582838581878   -1.77439466957942
H           0.95479471055499   -0.21312670519480   -1.22935518435758
H          -0.09998456015475   -0.97211254974881   -0.11287219655142
H           1.12551853601403   -1.83897294803493   -0.66358850413128
