    26
        -50.47418135  Gyration_radius:  2.40991612312 Dipole_moment: 3.453
 S           0.87302814802440   -1.63566310714879    0.63183565262821
O          -0.49720031990131   -1.60080781876364    1.12568515694605
O           0.96102373562697   -1.75896516646462   -0.80716584162921
O           1.65968814035443   -0.53156319566804    1.16025048032892
O           1.51175687344620   -2.95875390295195    1.22011116197364
H           1.34597540972942   -2.86689314449964    2.15192862815990
H           1.04561917984466    0.94008348241356    1.35908035913238
O           0.65912406654722    1.84841082449534    1.45967246090537
H           1.22172800012977    2.31051686847007    2.08249334753770
O           0.34422737532275    2.09089534562641   -1.27386471810149
H           0.45173672585099    2.24930152608501   -0.32081440444014
H           1.11052419332873    1.51889605193657   -1.51210015265363
O          -1.81884359237187    0.68873057396689    1.50747782270344
H          -1.42389957601435   -0.20766880362982    1.50994446010847
H          -1.06738511507705    1.28239426753160    1.67384019572090
O           2.38853019660719    0.38524768818336   -1.41808447573969
H           1.91622082997830   -0.46813719669633   -1.37340095575978
H           2.79692966897160    0.46580334481669   -0.55124354687763
O          -1.60475719876440   -1.82246686627908   -1.30390741701101
H          -0.65025902708305   -1.91948958693152   -1.48172320117436
H          -1.63530985208660   -1.96373046979126   -0.34405090665865
N          -1.93742118699642    0.80039724786363   -1.12344996957872
H          -2.71781004981263    1.22429724352819   -1.61174221197008
H          -1.84540459427330   -0.22816217646134   -1.36256433961167
H          -1.02550049741369    1.31616481525189   -1.33062807299227
H          -2.06232153398925    0.84116215516399   -0.06757952196245
