    26
        -50.46288691  Gyration_radius:  2.41113927655 Dipole_moment: 7.056
 S           1.59176318124842    1.16904406850168   -0.28567004053930
O           1.37648520385175    2.01474056283481   -1.43582557516222
O           2.53385676762377    1.62912470757378    0.68966519164161
O           0.19482760911764    1.12437784720322    0.50358153156043
O           1.80345998559894   -0.24362194358747   -0.67582682133439
H           0.64377902690167   -1.23193779026590   -0.89455322054435
H          -0.50259296445789    0.88701318153267   -0.15130094165180
O          -0.11843181046248   -1.89307841000061   -0.91705056606070
H           0.16126063043180   -2.58379760459882   -1.51894072310014
O          -1.79015239144230    0.27456598375210   -1.03850507264319
H          -1.42897739213812   -0.61849316582068   -1.15925175327223
H          -1.53224924454384    0.75829835106780   -1.85999884136336
O          -2.21702713746266    0.43365248461950    1.70321328016356
H          -1.65354539012912    1.20491049000986    1.82720216410117
H          -2.41592707097372    0.41867154114582    0.75236683616947
O          -0.59538985787881    1.48149085059763   -3.03536873009125
H          -0.81685771295822    2.32029346029687   -3.44234552260496
H           0.22182678953599    1.65677318608580   -2.49986234104258
O           2.06171525554366   -0.69582515883913    1.85697045642090
H           2.15037684997330   -0.72472536602534    0.87635238483137
H           2.28043443866333    0.23597180676741    2.01545781791268
N          -0.40437074693904   -1.53967439553261    1.75681443805370
H          -1.13300712872791   -0.77776564042776    1.83154511087653
H          -0.38944024183394   -1.87122943538481    0.76926370679662
H           0.57741239733605   -1.12813560886057    1.93348163619729
H          -0.59922902587584   -2.30064399263847    2.39858556467865
