    26
        -50.45263253  Gyration_radius:  2.65784670528 Dipole_moment: 7.076
 S           2.12687984021693   -0.09577865410465    1.86818402991689
O           2.68991398432341    0.20105045205317    0.57225196003358
O           3.00701844035278   -0.67637926372636    2.82949448102813
O           1.66014652800489    1.31896506792200    2.50465641433193
O           0.84030683969500   -0.80923792595067    1.70980588691921
H          -0.15844068503022    0.39490734103747    1.44951383848756
H           2.41983594000524    1.49252885840440    3.04858795971844
O          -0.80219852406554    1.10408148790134    1.18149787514287
H          -0.68018310062411    1.80093750557098    1.82917944952232
O           0.99378319537365    1.51992903344372   -0.94390339731803
H           0.26838593228472    1.54833744314727   -0.30243317313613
H           1.74228288817514    1.11846560256064   -0.44932012403518
O           0.42709474353979   -0.46924291967921   -2.56603630861795
H          -0.47423664004370   -0.20336697557686   -2.83362002238101
H           0.79107118625660    0.32912525152752   -2.10238242495542
O          -2.52853239838216   -0.58959541153840    0.04913018985387
H          -1.98571857292778    0.09139574627640    0.50331326148719
H          -3.28790826842820   -0.75611369442288    0.60892029635352
O          -2.11661859884950    0.47554123128039   -2.51457277447884
H          -2.41024958996305    0.08871570619961   -1.67531752107344
H          -1.95354899568319    1.40626879416618   -2.34717813046007
N          -0.11343660107558   -1.88364637017377   -0.48319966718931
H           0.40256011160560   -1.49614718367439    0.35812660523073
H           0.05884253481411   -2.87889548356286   -0.56939250368165
H          -1.11404014481053   -1.68617913421414   -0.33369727491187
H           0.19698995557175   -1.34566649452320   -1.39160893594550
