    26
        -50.46154319  Gyration_radius:  2.50756279732 Dipole_moment: 8.174
 S           0.28052272551357   -1.28497858630236    1.94001054326753
O           1.52800670710694   -0.69447495639593    1.45663902919272
O          -0.48276798174584   -0.42206697769713    2.79156335216174
O          -0.48136869440621   -1.82047520187097    0.80958013776880
O           0.72929904088999   -2.53806246515452    2.79819157146700
H           1.41430640573471   -2.89449635637380    2.24322529917302
H           0.36826351111674   -1.92791770254275   -0.51351570621832
O           0.78349829500044   -1.94662607630472   -1.42010646114433
H           0.11667110942480   -2.33766111043778   -1.98956480705661
O           1.43711508407862    1.68473171898494    0.57957788163349
H           2.18172752173009    2.15340307738406    0.95941287450644
H           1.46243119565976    0.76313159390458    0.98418330398431
O          -1.26508569439650    1.74759548364823    1.43335003291849
H          -0.38574191455361    1.98805045437255    1.11306644857536
H          -1.10177050820797    1.04904890043368    2.09572629647205
O          -2.28336309916120   -0.09594265595078   -0.23145309082079
H          -2.12041841097274    0.64465204552071    0.39154836070329
H          -1.74673111755031   -0.82686843737883    0.12574851235062
O          -1.52955878017787    1.08384336852941   -2.39544585970308
H          -1.91946383479978    1.95358180834652   -2.29303861592734
H          -1.89061318985535    0.54458411484113   -1.62515535516127
N           1.00029464681156    0.64948371448081   -1.86352747755404
H           1.66139684294323    0.89361887372088   -2.59242388226022
H           1.00060573788905   -0.40216509424076   -1.69438051660853
H           1.23990611816420    1.12558432420859   -0.96349424718647
H           0.00283825373589    0.91042612228896   -2.13971761453116
