    26
        -50.46695963  Gyration_radius:  2.54904945999 Dipole_moment: 2.020
 S          -0.22790194459477    1.40501408798026    0.41722049977135
O           0.30772569300310    1.45764610668359    1.76323373393191
O           0.76973525798141    1.59364621566837   -0.61822405715914
O          -0.95578553910638    0.14396036889633    0.20214473401910
O          -1.26172646415279    2.56538455309065    0.24402011458909
H          -1.76547416890523    2.56854533440297    1.08317489388182
H           0.02980988936943   -0.81239220078109    1.15324413660272
O           0.73445490771660   -1.35833681875814    1.56492254873287
H           0.98058376871267   -0.87088288982284    2.35463453252576
O          -1.92071250718503    2.33066338424800    2.79559822132512
H          -1.76933099471216    3.11022436887708    3.33473114159265
H          -1.04235890494959    1.91452209624154    2.65774446825503
O          -0.12570535047737    0.91463038342424   -3.07131789433454
H           0.21036947069209    1.23279682337194   -2.20983494282750
H          -0.27851224875620    1.70049028577799   -3.59667488941898
O          -0.17396303855940   -3.48686301749397   -0.04567515598431
H           0.27096076003299   -2.92250555391461    0.60626783321223
H          -1.01012362061679   -3.73887740886516    0.34939249209622
O           2.37455214118750   -0.55871290705976   -0.53914284348412
H           2.11155022556111   -0.91356220229617    0.32625053279328
H           2.04520140056762    0.35981272051327   -0.55633206732577
N           0.13027026439711   -1.35453828710472   -1.67862852585933
H          -0.07547636664560   -2.34167746646456   -1.45995113734169
H           1.13798998953823   -1.14362675919280   -1.42022227947852
H          -0.06077807912633   -1.04684253462683   -2.63256310754978
H          -0.43535453065619   -0.74851868272635   -1.02401298261611
