    26
        -50.45723630  Gyration_radius:  2.41428557675 Dipole_moment: 6.640
 S          -0.13112401915731   -2.05835241491584    0.31154013351749
O          -0.98859769357595   -1.01371875288651    0.88483876316488
O          -0.77596388755339   -3.31208727909489    0.12437233070538
O           0.24357470071271   -1.46716532525097   -1.16050620843054
O           1.17173530790277   -2.07836375040569    0.96078502361998
H           1.63170284260311   -0.80663299640604    1.72714819364709
H          -0.52060270137942   -0.93633467007435   -1.47267307664158
O           2.05909960553630    0.05451883271556    2.02543440100571
H           2.72974577969841   -0.19846781532070    2.66088322692583
O           0.21384779102246    2.10259983594201   -1.02788022655524
H          -0.08327585200289    2.05210714875920   -0.08219367997811
H          -0.44983394956111    1.60165910592232   -1.52770875694409
O          -3.19509631630921    0.07288095455165    0.03981752854238
H          -3.24333508145592    0.85587608437200    0.59337819508682
H          -2.50897148328048   -0.49877484222629    0.45750082641124
O          -0.34394126840579    1.46232470438363    1.46103431777899
H          -0.64036865052492    0.53666596338959    1.29924105856680
H           0.47368675368555    1.35564930582026    1.95951178518613
O          -1.61410400674852    0.23817778187009   -2.02569122187682
H          -2.28833173398639    0.23070675159742   -1.28848235016855
H          -2.07566844880617   -0.04798860951200   -2.81521526939217
N           2.10255452554456    0.37403577860964   -0.63115849369158
H           2.28025663585584    0.37809736375312    0.40163899122657
H           1.42217290606926    1.18560213973851   -0.87191680166558
H           2.96519334769730    0.41645323138542   -1.16221445399686
H           1.56564488641848   -0.49946852671794   -0.84148423604595
