    26
        -50.45984598  Gyration_radius:  2.57346446058 Dipole_moment: 6.347
 S          -0.35316788323949   -0.07911635527250    1.20403340907777
O           0.86767162268637   -0.03641875531412    2.01454832170247
O          -1.48820591256083   -0.62626894385269    1.89530102164762
O          -0.63132403767415    1.39191956730938    0.80864437390238
O          -0.06459440823907   -0.80480985246199   -0.05566296900578
O           3.79623981871293    0.19724001163240   -0.65179570845366
H           2.96493625662308    0.62004354491408   -0.97770202479187
H           4.26210975473144    0.86989686174898   -0.15202930102619
O           1.35790682108301    1.13058033816380   -1.13674072721165
H           1.04040826061011    1.89973559881631   -0.65473223649423
H           0.82576077377208    0.38723093315816   -0.77603640992131
O          -1.30416383286339   -0.13342091437322   -2.36153932511877
H          -0.94273484724835   -0.57631081343497   -1.57174088559136
H          -0.57261879907008    0.35906649400046   -2.74274902481393
O          -3.89980907751903   -0.47827610940324    0.85294972714646
H          -4.47447310761849   -0.23061161842603    1.57915743374082
H          -3.02162893440729   -0.66023159970455    1.25653165322374
O          -2.69819941515789    1.38074626661609   -0.62633528068135
H          -3.29748266270617    0.75102075416471   -0.16438043708445
H          -1.50516732393822    1.43901365186773    0.25248277835131
H          -2.36805605934680    0.89364863750145   -1.41120420770405
N           2.34000738156346   -1.57838369424383    0.68378795114386
H           2.73237923718314   -2.41549401981413    1.09973953789222
H           1.54719881929887   -1.78019353559097    0.05745467473853
H           1.83056460307143   -0.92099585659637    1.40905888831016
H           3.05644295226437   -0.99961058140061    0.16895879702141
