    26
        -50.46246733  Gyration_radius:  2.42647636261 Dipole_moment: 5.628
 S          -0.32617485173289    0.43976545497153   -2.06179859962891
O           0.60522150655559    1.28898237546037   -2.77034349453903
O          -1.18526471507805   -0.39343761392130   -2.84513436623383
O           0.59353905904110   -0.58823448961789   -1.21594362143979
O          -1.05400874360182    1.18232318191366   -1.01544936168594
H          -0.72719366697175    1.37213087946519    0.50180424005126
H           1.37872060340374   -0.05087201221705   -1.01885263932802
O          -0.61200959272313    1.42036737341833    1.49524107113700
H          -0.95106016215925    2.27901227326715    1.75143836498298
O          -2.65975556441134   -0.82855883384947   -0.65863216907235
H          -2.42096189109989   -1.25045789712371   -1.49548963679923
H          -2.24837981878493    0.05774222823834   -0.77804917211644
O           2.48379451436940    1.33266684695281   -1.04550775398742
H           1.80284284926448    1.53613767496250   -1.74328891634422
H           3.32234307366781    1.28087156194119   -1.50858631514260
O           1.00621072666899   -2.06094087399780    1.05318225479252
H           1.51132740304019   -1.26897093284351    1.35547128235682
H           0.94799195633485   -1.95204256926489    0.09310110549573
O           1.95782358950735    0.38707411142092    1.55294978852355
H           2.34570479465505    0.78877742171579    0.76339739328822
H           1.11419113232014    0.85016380087118    1.68087267530784
N          -1.39180559112172   -1.17990382583158    1.60664024003250
H          -0.44206325040711   -1.65637236313257    1.44560404447484
H          -1.90985108413908   -1.61349001948610    2.36245364563676
H          -1.19425389130009   -0.17853901832364    1.80210928103980
H          -1.94692837530837   -1.19419476498762    0.69281065920715
