    26
        -50.47109539  Gyration_radius:  2.4645407528 Dipole_moment: 5.071
 S           0.32956365312722   -1.17034670860090    1.08444569261871
O           0.72325597998323   -0.08211427846201    1.97464136843316
O           1.25638657363113   -1.38511764323625    0.00571655583792
O           0.26085872145387   -2.48603585863134    1.92391838415140
O          -1.03525949786560   -0.92862847236918    0.58280997689484
H          -1.47764119344840    0.56628492482182   -0.02840351787433
H          -0.35248688937892   -2.22888971754945    2.63873615590262
O          -1.70991225682701    1.32239926739046   -0.61513200197496
H          -2.18710178113050    0.91486370665704   -1.34432286927745
O           2.09578138460234    1.83981409970589    0.87501834358702
H           2.05515984426744    2.52066811000549    1.54926430956941
H           1.67044656420389    1.04354051620369    1.27955396818120
O          -1.37108665987813   -0.96350907529256    3.33946464015370
H          -1.97928156638670   -0.86661756849674    2.59933292391026
H          -0.61967928130944   -0.38472122434429    3.12067921980161
O           1.12358116207770   -0.46488345701431   -2.46378661254274
H           0.20094413376208   -0.77523000941840   -2.56364943699653
H           1.40658844318738   -0.89085585565644   -1.62746097316992
O          -1.39651257002913   -1.34909110855511   -2.01000073606167
H          -1.50389179792469   -2.28506266912776   -2.18448682436746
H          -1.25951030531316   -1.27166383539054   -1.03825217294376
N           0.75910508169920    1.89470416123139   -1.43244583598370
H           0.99332269716716    0.97090211771608   -1.94333177048040
H          -0.24811557832009    1.81435271054238   -1.12864333826541
H           1.35345782724678    1.94456665116808   -0.56575516930584
H           0.91202732133513    2.70067121600704   -2.02791028971419
