    26
        -50.46519630  Gyration_radius:  2.68379252733 Dipole_moment: 2.387
 S          -0.71467131109979    0.77279671899674   -2.15162539820760
O           0.55166721812218    0.44786234157384   -1.48749789406373
O          -0.95645291464410    2.19668698116441   -2.19166290045847
O          -0.55350261925965    0.29412282562708   -3.65575386530314
O          -1.81054441183526    0.00465712007571   -1.59566528929593
H          -1.63229578406071   -1.16904471001043   -0.50433827786805
H          -0.02204251962241    0.98196061672733   -4.04529263531558
O          -1.46736580593326   -1.78093324582389    0.25892569188638
H          -2.19958619524974   -2.39825211257962    0.26968808404373
O           1.71781977116545    0.66405823852268    2.82646806031357
H           2.36742840915356    1.36524484578319    2.75675809293015
H           2.14904876495435   -0.14241269349415    2.45467731313471
O           1.20938616748690   -1.98551763037812   -0.50440067464725
H           0.30918126116987   -2.16964698938403   -0.19543272589241
H           1.12943145797404   -1.16345787431150   -1.01997774426033
O          -2.10992521425006    2.30973163981357    0.17093789115185
H          -1.68412540283931    2.44794773000374   -0.70504310792587
H          -2.90459939779538    1.80830551077029   -0.02743087163455
O           2.75801972711441   -1.43848410185920    1.59055933782487
H           2.93160923156450   -2.28604422929592    2.00130515952409
H           2.24024999281920   -1.63387669736081    0.77098346419137
N          -0.25939509854170    0.58063212686121    1.02423877984614
H          -0.72675207914390   -0.32919002968729    1.13229834462479
H          -0.98293610856552    1.33395233569585    0.94006367798464
H           0.43552715061848    0.73012671338293    1.79623117291310
H           0.22482571106886    0.55877456884864    0.09098631413296
