    26
        -50.45694964  Gyration_radius:  2.48170205484 Dipole_moment: 7.892
 S           0.15496417476918   -2.31535293385395   -0.02356892363924
O          -1.21694846693814   -2.00607051696046   -0.45534648177212
O           0.43838943282709   -3.69105171782049    0.18174008764104
O           1.09003366728217   -1.80164326265918   -1.19482221543712
O           0.49522551462928   -1.45963722534964    1.13412854166771
H           0.00549680245375   -0.13382098268566    1.75049900381830
H           0.72029198018710   -0.93785806470157   -1.45754818547129
O          -0.34819914774102    0.74123810525126    2.09424297878039
H          -0.18374840013188    0.73071183133233    3.03810874181301
O           1.53963523187696    1.67226885882900    0.24882201709847
H           2.21014793980422    0.97145228581786    0.42326875052771
H           0.88594227411752    1.56571542164803    0.95862043205543
O          -1.93919007195728    1.92411048918095   -1.53891346154802
H          -1.66528682235223    2.79600665584377   -1.24739056621151
H          -1.12332162252219    1.46267127778049   -1.82835342790338
O           0.43659633840668    0.71841973437715   -1.86832114090837
H           1.01741766046744    0.88616702836608   -2.61227908505120
H           0.88087599958331    1.13442919154302   -1.05914930943099
O           2.93025228680140   -0.56927360308524    0.67364706188809
H           2.09449123243233   -1.00506455331059    0.95189405521941
H           3.22846123896649   -1.07435412472001   -0.08573387060518
N          -2.35600292588977    0.09332468664271    0.39569831783783
H          -1.87051082325594   -0.82879867212115    0.01975126282900
H          -2.34752078763831    0.80358941199058   -0.37173842163487
H          -3.30246173576015   -0.11681493890138    0.69118049887532
H          -1.77503095037586    0.43963563749081    1.18156335953428
