    26
        -50.46182417  Gyration_radius:  2.43105097711 Dipole_moment: 6.275
 S          -1.32913057965763   -1.21380711576929   -0.62073494526277
O          -0.04113439022440   -1.47048299378857    0.06011360744322
O          -1.33207150572575   -1.67530761702709   -1.97593356197970
O          -2.43240308027774   -1.95159386867040    0.18918967959683
O          -1.61649616502358    0.23013637226361   -0.53323802403392
H          -1.22008285421732    1.00592972318566    0.75507159432620
H          -2.23772731297656   -1.73775496029101    1.13096268270935
O          -0.93563783088455    1.49424513121915    1.58160925607225
H          -1.54531517863131    2.22857246696167    1.67174438210307
O           1.61511571472689    1.80726515007785    0.81307227822441
H           0.70205369060452    1.70004611004850    1.16349109775838
H           1.87725756028310    2.71142079805331    0.99016448822094
O          -1.26760160260850   -1.16292832119272    2.41685008780747
H          -1.23739323958091   -0.19599919681542    2.46525902567785
H          -0.54127079397511   -1.40612586377495    1.82044711121606
O          -0.59160070379919    0.74133710882962   -2.92473777078603
H          -0.84318892768355   -0.14763060994172   -3.21554702053469
H          -1.13649910417409    0.84948838048830   -2.12064961270818
O           2.68190573419305   -0.98275021510901    0.91040208075765
H           1.84769723817544   -1.45865086384872    0.83919297210220
H           2.46764540886972   -0.11442691176001    1.26562855618677
N           1.44726687540734    0.16105745193436   -1.35985291371352
H           0.92687014870219   -0.59228787091577   -0.81942281802219
H           0.78316509300136    0.48613652866210   -2.12272901233062
H           1.63760304467716    0.91351155263347   -0.66819685464055
H           2.32097276080208   -0.21940033543945   -1.71215636619431
