    26
        -50.45600756  Gyration_radius:  2.50094614985 Dipole_moment: 3.911
 S           0.63077768929326    0.17105890904241    2.20782239410879
O           1.87654511765880   -0.54473705025835    2.03649687605996
O           0.34436759458372    0.65836083414380    3.51885036344126
O           0.78626137410079    1.49981307350572    1.27523914688832
O          -0.49183028531720   -0.52570278748032    1.57049001349497
H          -0.28886173274492   -1.84411528025997    0.66205180353245
H           1.47013614480670    1.97977972163979    1.73027253096506
O          -0.19141452913363   -2.58634282321774    0.01150338162730
H          -0.13395390133110   -3.38919415912999    0.53056922503740
O           1.66274511179428   -0.58182832705116   -0.54303969604973
H           1.86633364453159   -0.54352304089740    0.42341350316799
H           1.29390106684246   -1.46679578619449   -0.67478944373236
O          -2.01581715665384    1.52940439680821    1.02680684722196
H          -1.77007149163942    2.22671397454518    1.63682071421939
H          -1.57059150605262    0.72156420867261    1.36590006578098
O           1.64446217601646    1.34218668986927   -2.62306928433476
H           1.90322694136561    0.67688670471256   -1.96724744742714
H           2.43576833790568    1.56681251605653   -3.11291828827256
O          -2.12809182919706   -1.41121188657200   -1.47473647523976
H          -2.82820561535490   -1.30100102048220   -0.82726389533295
H          -1.46354900783307   -1.99416099790341   -1.05530641329577
N          -0.61732964250154    0.78404911846333   -1.15963030436747
H           0.23756147304527    0.34350515509100   -0.73850814308222
H          -0.29278494267674    1.36939745125804   -1.92956036573481
H          -1.24287092787973    0.00445748762739   -1.47833306856808
H          -1.11671409366858    1.31462292796511   -0.41183403005724
