    26
        -50.46651784  Gyration_radius:  2.47107446729 Dipole_moment: 5.691
 S          -0.83628043699398   -1.69900352116206    1.30486509293324
O          -1.47880617071249   -2.18249311284559    0.10278891029515
O           0.44705980916399   -2.31854993285169    1.55915750744274
O          -0.75671110616237   -0.23957849391213    1.34859529956920
O          -1.78619468738613   -2.09268651342251    2.51375426982148
H          -1.89082379220013   -3.02120267228073    2.34035130787895
H           0.59594792987459    0.55523227245947    1.53145227974761
O           1.42065118739348    1.11548265657535    1.56511314969618
H           1.48316306136070    1.42745993870655    2.46895819790650
O           2.09791158760965   -1.08718158185083   -0.02796703154054
H           1.52850657918436   -1.68593778823010    0.51347235066354
H           2.26834091636618   -0.33740455378548    0.55885232027909
O          -1.92248525983209    1.55633402748026   -0.27839342259165
H          -1.64484831546038    0.93880038930352    0.42465050853668
H          -1.14975061291041    2.10790230982809   -0.45061916579192
O           0.79891647854430    2.52123372631181   -0.62447667806577
H           1.05140435345795    2.07368210904196    0.21633535326549
H           1.24736910011785    3.36733976208176   -0.63601532075895
O          -1.68879043211770   -0.53682309461541   -1.92070524743316
H          -2.02267668127265    0.26105318781347   -1.45268163210830
H          -1.70123572078551   -1.24523466192123   -1.23451157976478
N           0.80278521954724    0.10832296559307   -1.98504604580871
H           1.24410839659232   -0.00574091091196   -2.89039782191431
H           0.82500596020116    1.09477215610956   -1.68277407303072
H          -0.24779738867426   -0.21225541017420   -2.02062922400185
H           1.31523003507955   -0.46352323333772   -1.24412931521791
