    26
        -50.46485767  Gyration_radius:  2.56521120829 Dipole_moment: 4.108
 S           0.90099775882396   -0.08878662432075    0.19370329575459
O           0.72088156558914   -0.83316479351563   -1.04848980182809
O           2.05750387717531    0.79562898840703    0.12335815100891
O          -0.31439764158269    0.66014733054489    0.52714989128588
O           1.16192419932414   -1.11118141891052    1.32971858556170
O           0.39781131741905   -3.36543072994416   -0.33164172917864
H           0.52020079262419   -2.48798699220978   -0.74974374952499
H           1.00939179067890   -3.36965480882219    0.40940383876507
O          -0.52955425457691    1.01509847973666   -2.40517021362615
H          -0.06853296880404    0.22433823547183   -2.03544842139198
H          -1.34417273908754    1.07971225136061   -1.89966993505850
O          -2.07929588897639   -3.10951671004534    0.63916110497404
H          -2.36056956737946   -3.96515068126752    0.96649081187156
H          -1.21725841147542   -3.25765039312516    0.18382514348834
O          -0.34509418580098    3.28105048186255    0.75787608817549
H          -0.00183174328615    3.49056905011925    1.62795297197112
H          -0.43795018433100    2.29858550471537    0.73556985571056
O          -1.20093183729349   -1.17588066431013    2.25257392301367
H          -1.30723412088929   -0.36556776747399    1.73014745444270
H          -1.64050334139800   -1.88912027792219    1.73310197621855
H           0.27555195713439   -1.21667452067885    1.81429936172844
N           1.17944537366369    2.71540951227065   -1.33743557752649
H           1.70745566935292    1.96440672445172   -0.77654132570548
H           0.62869358383012    3.24289948623257   -0.62118887437251
H           1.79330013608700    3.30481028947001   -1.88820967144070
H           0.49416884316914    2.16311006789545   -1.93079312431152
