    26
        -50.46485750  Gyration_radius:  2.56537401837 Dipole_moment: 4.109
 S          -0.89672874230808   -0.16960929981340   -0.14680754570296
O          -1.12546732124534   -1.13228335010491   -1.34039422593106
O          -0.56187935325394   -0.97523087061059    1.02309676303600
O           0.21237832695333    0.72509819334023   -0.49128685920524
O          -2.13011499920445    0.58011258045140    0.05639951258303
O           2.33783582968503   -2.82329294615805   -0.99366422877717
H           2.67921494612867   -3.61945860614138   -1.40347371807186
H           1.52715359307387   -3.09195021102254   -0.50074398382389
O           0.58069845098920    0.89782961282749    2.43940840959647
H           0.17911825425670    0.08964454525122    2.03931998744595
H           1.34793500143933    1.08391889747398    1.89165169760109
O          -0.03162724626717   -3.40328230899652    0.09889260113795
H          -0.21433374565117   -2.57474507433345    0.58868975070860
H          -0.68702427491917   -3.42044486207431   -0.60347465673113
O          -0.04370826037375    3.34356262398750   -0.52743014892162
H           0.15149318320089    2.37765410798370   -0.58407483082856
H          -0.46535255768541    3.57304978260557   -1.35706987919957
O           1.16696899233903   -0.88244164281017   -2.39902435903064
H           1.70877336209924   -1.58053434391202   -1.96206865578786
H          -0.26621109589518   -1.10936301620402   -1.88156116397076
H           1.22497170969966   -0.10420868274093   -1.82302475618805
N          -1.35954584778338    2.47633123015453    1.60584960016525
H          -0.58387164309393    1.96049355873084    2.11476446291498
H          -0.91404426374068    3.10773632002269    0.90051771817397
H          -1.84371028905301    1.71395001142190    1.02124142863704
H          -1.99292200942239    2.95746376065474    2.23426709016211
