    26
        -50.47611854  Gyration_radius:  2.40928820183 Dipole_moment: 3.950
 S          -0.28596595583349   -1.17256306163868    1.29952084987822
O           0.03332363440351    0.15520982202642    1.84272476519568
O          -1.69577024293592   -1.44467348601242    1.28719076887567
O           0.29128689075559   -1.29712927833854   -0.05142189164284
O           0.43665280680744   -2.22398360467217    2.18471593476036
H           1.34891395759693   -1.86509316234463    2.23592291686905
H          -0.57403243098516   -0.95304935172881   -1.37549671305119
O          -1.05074588608203   -0.64014500219298   -2.18475236461899
H          -1.14907350301784   -1.40719288937684   -2.75034984317693
O          -2.93472722042626    0.23761630115897   -0.37048969253626
H          -2.53845428651684   -0.08195329431227   -1.19863850244996
H          -2.67852169533097   -0.42979289377331    0.30170293359925
O           0.52162156684562    1.63962815922173   -1.84271079084166
H           1.32069238837430    1.21538092913101   -1.47582463148030
H          -0.00311054203819    0.92104886825581   -2.23180340558307
O           2.54920887177163   -0.63549078188847    2.06817016943540
H           1.79161951372348   -0.04398643444966    2.21005546973296
H           2.86822199890959   -0.41297090164604    1.18132458145073
O           2.42678248867090    0.00244064139422   -0.70115203109398
H           2.91373098730707   -0.54258725086226   -1.32177325816284
H           1.62551949728165   -0.52185660835302   -0.43935367795462
N          -1.04669239644540    1.93663676866766    0.27134463207169
H          -1.24837437491219    2.85792032645436    0.64279376793912
H          -0.57888416149298    1.32023005769663    0.99412941874891
H          -1.93383497781328    1.40737143745153    0.00008494931328
H          -0.40938693861836    1.97898469013141   -0.57591433527973
