    26
        -50.45971327  Gyration_radius:  2.45373709975 Dipole_moment: 7.638
 S           0.72455108085712    0.17713731439134   -2.28232734825938
O           1.73091477949303    0.92031994304846   -1.49844484958267
O           1.24536466308131   -0.48180587698028   -3.42996170768942
O           0.01752420438243   -0.75304777476333   -1.36225632872416
O          -0.34850961883830    1.21626608220464   -2.72383903362307
H          -0.63837504176280    1.63327694912443   -1.87984380744557
H           0.61577507215683   -1.69101522092784   -0.27455885547689
O           0.99889277978693   -2.18833302952524    0.50670605245728
H           1.30658682356292   -3.02606161805794    0.15899033044154
O          -2.42274670564214   -0.49315103982534   -0.56462555013898
H          -1.51269525709949   -0.62035732743011   -0.94541443516524
H          -3.03791205480023   -0.80098137908086   -1.23081923118667
O          -1.28021679448976    2.00226813995528   -0.38436184111342
H          -0.75982053880571    1.90159895582105    0.42726861249317
H          -1.92629750139365    1.27637917115169   -0.36690551254954
O          -0.17307833629428    1.25419423594413    2.09838410268439
H          -0.48152726765660    1.68552251576991    2.89563658307232
H          -0.63114091621664    0.36372726187761    2.05870436225399
O          -1.24061787727065   -1.10747552647139    1.83573584661545
H          -0.51522678191814   -1.65660035897822    1.50045653994729
H          -1.83810766705128   -0.97827729658088    1.07858926423242
N           2.05538805030330    0.27226160816220    0.90981703477489
H           1.85658626304684   -0.74422527909980    0.93931019937738
H           1.92428523802697    0.58071940188640   -0.16138479874433
H           1.33766264829205    0.77064193289757    1.46659203444803
H           2.99274073623223    0.48701820549398    1.22855233691131
