    26
        -50.46471576  Gyration_radius:  2.51661598211 Dipole_moment: 2.417
 S          -0.10014469767664    1.56113854563407    1.60278144177986
O           0.10570604069343    1.91980976352898    0.22093520920723
O          -1.10274786272985    0.50663326290406    1.75090748803303
O           1.12332205676610    1.23956170518855    2.31480033864470
O          -0.70019731241711    2.84259741744886    2.32249641838480
H          -0.61727481795221    2.60943173414341    3.24175568613650
H           1.71846208625395    0.27651517624508    1.20875221211755
O           2.03016904769212   -0.30657324153366    0.46843586433658
H           2.81182372016665    0.12599370155825    0.11843962619336
O          -2.24985564167153   -0.05510156142627   -0.51450638272252
H          -1.91871615475265    0.28900974228173    0.34912237763925
H          -2.63029168536721   -0.91625760369643   -0.32344540491584
O          -0.38757029778461   -3.05610202264739   -1.21577576188751
H          -0.27419066390421   -4.00507988961792   -1.16516332239846
H          -0.37941078533211   -2.72981135946751   -0.28942715751225
O          -0.14072904140199   -1.96662656310221    1.24944168043180
H           0.80365741424852   -1.78332531674096    1.28058042467074
H          -0.56515760341428   -1.12993656881991    1.52347093627939
O           0.79298436467265    2.02363779577509   -2.36693709706403
H           0.63580579211038    2.11944806115594   -1.40666392157250
H           0.19440187325797    2.64445238999878   -2.78524058868202
N           0.17983188180959   -0.45319465771689   -1.54365305220837
H           0.84521247161927   -0.40342269635423   -0.73806311807797
H           0.44230566351956    0.30173404025585   -2.20168133932207
H           0.17603607908205   -1.40619826850722   -1.92182120256779
H          -0.79343192943254   -0.24833359749965   -1.17954134407357
