    26
        -50.46052942  Gyration_radius:  2.47963273798 Dipole_moment: 5.036
 S           0.70419917686172   -0.71530341443417    1.86433393604728
O           2.05456775519965   -0.24315496171273    2.04182422491657
O          -0.32438205700556    0.05888042767119    2.52302223811733
O           0.38342643647970   -0.91276296476497    0.44958282040164
O           0.64838122054804   -2.16535560239627    2.52563602358748
H           1.52943974145334   -2.49963582313751    2.38842662382656
H           0.14996714751018    0.73547571776547    0.36416203314658
O          -0.09774859700443    1.67814748754292    0.23240305567054
H          -0.59210433964432    1.90658238886753    1.02406741023208
O           2.63977955122087    0.93069315757090   -0.28307979895414
H           2.06328460797731    1.68979717706034   -0.14756008785082
H           2.56535098774747    0.41847186416414    0.54784935049146
O          -2.70525259719398   -0.06059187608907    1.40946498560070
H          -1.81994907044411   -0.01079010762843    1.84313371099880
H          -3.28806140443085   -0.44474864272510    2.06595164899689
O           1.63357111689766   -0.01740894739560   -2.55478514747607
H           2.26182369442825    0.35150167182259   -3.17721617808118
H           2.00385076453086    0.17549641813431   -1.65704324199395
O          -1.89775148530577   -1.39604992900001   -0.77500990770797
H          -1.01708168887668   -1.51730209265359   -0.36376421207885
H          -2.40801655029233   -0.95924362493465   -0.05992524374918
N          -0.91509999521363    0.61818321461917   -2.08471590983519
H          -1.40877445132874   -0.25070553321246   -1.66466972132525
H          -1.44512398841364    1.04454725764236   -2.83544147048093
H          -0.76338873877480    1.26480154943201   -1.28070392580128
H           0.04509277309708    0.32047517778644   -2.39594321669939
