    26
        -50.46114343  Gyration_radius:  2.69252975843 Dipole_moment: 2.315
 S           0.47353387593198   -2.69355651923229    0.36925423012635
O          -0.64108267034321   -2.63747341876945   -0.57447391127166
O           1.76465571251930   -2.69506379922738   -0.25098258116603
O           0.34218639837455   -1.62136737670266    1.36822465832433
O           0.28553240772636   -4.05958347811709    1.15504582629573
H          -0.65725807988655   -4.19890421997727    1.13858300060434
H          -0.75268931230899   -0.41155068144742    1.42052179275720
O          -1.33770441050713    0.38281533578982    1.47996153623739
H          -1.86805904330159    0.26136935074414    2.26838440725324
O           0.72818126128097    2.22933270848169    1.21711646023137
H           1.41950915587893    1.63240951321987    0.90228964707666
H          -0.01903771076303    1.65043884922866    1.44681355836672
O           1.98602952599457   -0.01478143117127    0.10345782739554
H           1.44829783783445   -0.57026618910378    0.71458499885503
H           2.70220788882340   -0.60299563141904   -0.15595214097785
O          -0.29381474161311    3.43756868442720   -0.91342813797707
H           0.17864547976135    3.08144810405440   -0.12129700902277
H          -0.57865725281155    4.32183281346729   -0.68171612557461
O          -1.87170388315296    1.29323212379202   -1.07644760688395
H          -1.89889008864607    1.02867484825659   -0.14138272772611
H          -1.40125374085721    2.15727966022937   -1.09880527047594
N           0.00819290250495   -0.38909931707057   -1.73830918559636
H          -0.79472052301459    0.31356926709739   -1.56938822461545
H           0.25291730805671   -0.44351104381301   -2.72112964972515
H           0.83549021443922   -0.11518026141421   -1.16090877423799
H          -0.31050850187978   -1.33663788132199   -1.38001660827755
