    26
        -50.46484897  Gyration_radius:  2.51792403815 Dipole_moment: 4.363
 S           1.19203716971807   -0.12481618610894    1.82660431749354
O           1.91201581576352   -0.14805008634525    0.55172964909530
O           1.55312674767601   -1.15247257248139    2.74654352362130
O           1.63923504310203    1.25902094646394    2.50626449206740
O          -0.24318091135449    0.00139570673569    1.58925691965294
H          -0.62822359640041    1.30192227393403    0.64120224581895
H           1.70735507670062    0.96729214806569    3.40817762761870
O          -0.70389703821325    1.96325620159108   -0.08535781472230
H           0.20760324958510    2.32088945993580   -0.18023600331727
O           0.94637369882143   -1.50083434190554   -1.41781422581769
H           1.69227229248456   -1.83864560909720   -1.91563829539879
H           1.33706906277467   -1.00275272049941   -0.65078126894412
O          -1.05863093111167   -2.27702744357748    0.45418247932357
H          -0.34634932139296   -2.37762123576323   -0.18924053667888
H          -0.79803773758451   -1.51748557094794    1.01189994899735
O           1.92019328166906    2.41077752627787   -0.10271468725042
H           2.03940469634169    1.45473398373419    0.07921315118845
H           2.16488232777771    2.84912835360463    0.71521895742775
O          -3.05728106532082   -1.19300466300958   -0.85166342199176
H          -3.55712652623397   -0.71178952528393   -0.18972113227074
H          -2.40344700156459   -1.74416936740428   -0.34186724732299
N          -1.10225690722744    0.21592364359684   -1.95284092696648
H          -1.96086923849847   -0.31304431561418   -1.62755969896938
H          -1.21990794270128    0.57214954591039   -2.89425143959283
H          -0.94029285551424    1.01883946921858   -1.23659454401454
H          -0.29206739931524   -0.43361560107943   -1.89401207905060
