    26
        -50.46047178  Gyration_radius:  2.379964618 Dipole_moment: 7.201
 S           0.83630919282625   -1.79898939131011    0.26766320817385
O           1.28768724408741   -2.12578980600692   -1.06451909208880
O           1.57932626788980   -2.31555137914360    1.37486456972865
O           0.99186169278076   -0.19554344454029    0.37229946543603
O          -0.62025613928598   -2.00691127977319    0.42023984302012
H          -1.53988316179058   -1.00258785574366   -0.23892390722261
H           1.24888429049398    0.14355875845383   -0.50797329668767
O          -2.13085861750950   -0.27155547235641   -0.61445823513587
H          -3.01425645622362   -0.64262541333015   -0.64075541339484
O           1.49128713538475    1.04933098889665   -1.94845935857855
H           0.78632044352528    0.48284902059082   -2.38165373331721
H           2.31909338504762    0.77415789223303   -2.34626389666630
O          -0.24178067703419   -0.71448851684994   -2.68529626682972
H          -1.03739435701939   -0.54545222568660   -2.16152976227785
H           0.27276554275457   -1.39469492553356   -2.19102053292315
O           0.93634147706596    2.65901297213347    0.23360919832891
H           1.04877991711873    2.28558932638405   -0.65767176565395
H           1.70112472196726    2.35842531432758    0.73086816780326
O          -0.33558435294035   -0.80365024002417    2.69556556388426
H           0.60028598996967   -1.01341446317995    2.79893819309656
H          -0.58528789522071   -1.40366718796063    1.95632761549901
N          -1.13288581574550    1.31889722625084    1.32874462677575
H          -1.76679252994749    1.91743246618469    1.84785001801674
H          -0.33594227604266    1.87096040997994    0.91631485784191
H          -0.73358053573326    0.54553842918058    1.95093806583680
H          -1.62556446640676    0.82916879680095    0.54430187731399
