    26
        -50.45843412  Gyration_radius:  2.39773139555 Dipole_moment: 5.070
 S          -1.35351280526344   -0.57217534813448   -1.00827267991178
O          -2.64668639333964   -0.89469783031227   -0.46099176065558
O          -1.23559138725817   -0.62663634577640   -2.44562192077249
O          -1.07804552359641    0.97316737558578   -0.65446351499852
O          -0.25925209422057   -1.29378247606407   -0.34681702784312
H           1.04103908138409   -0.97341457459095    0.53919468191945
H          -1.30521830681475    1.08767361552614    0.30483424578256
O           1.89314418808103   -0.70363109291188    0.96815362566429
H           2.41110229497135   -1.50244234205434    1.07054258164092
O           1.11061666555336    1.95750332096046    1.49064077212468
H           1.47388261683356    1.10789716957351    1.76247317901571
H           0.19002279957315    1.94153003601529    1.77500539465392
O          -1.60665861847668    1.15024380418697    1.90240095185210
H          -2.49197202238906    1.49177575087989    2.04203251676238
H          -1.66265073785937    0.16814913245308    2.07937436258158
O           1.27073157193792   -0.94057732532020   -2.85283902032594
H           0.27690625280084   -0.83108146591111   -2.84167253371093
H           1.41801281139485   -1.77972193442285   -2.41020112777560
O          -1.83971349270062   -1.44187873677913    1.94341533043650
H          -2.32241043432857   -1.36396641894612    1.08633365280703
H          -1.00549143437885   -1.84905518649532    1.69224121257016
N           1.56901854192702    1.00065242210372   -1.13686775720667
H           2.05577869196327    1.86003688514277   -1.37084798064075
H           1.58736177462521    0.26204515642945   -1.91620924495608
H           1.95085328140048    0.58061912232319   -0.26736783149148
H           0.55873267819160    1.19176727653863   -0.94447010752648
