    26
        -50.44592084  Gyration_radius:  2.58184712424 Dipole_moment: 6.936
 S          -2.08699562952307    0.43188193283467   -1.54280367026143
O          -1.99795648097333   -0.96751132923510   -1.18519511118402
O          -3.35735299742155    0.90872879439353   -1.94060331192283
O          -1.52196920143314    1.24610365862160   -0.33308311377435
O          -1.05401370580403    0.75220759637881   -2.63909164705012
H          -0.12714764720136    0.48620718799728   -2.34275746897360
H          -1.77286652402477    0.71057117589891    0.49110097897528
O           1.34085104018321    0.21716368760977   -1.86924872411469
H           1.94115955051147    0.50725658707232   -2.55794807213469
O           0.24498772594768   -1.64412585962613    1.92860549608309
H           0.36222867988010   -1.83107524345981    0.95220961319450
H           0.20567201503559   -2.49770778733962    2.36253988053956
O           2.05078224355624    0.38730516274204    2.39881377599796
H           1.36673937032957   -0.30051197455302    2.31765169807567
H           2.86884246919976   -0.06554149223048    2.60785505357047
O           0.37957566397302   -2.05876974082684   -0.63698807902181
H           0.93905283066256   -1.40596881310170   -1.08258855170085
H          -0.53110714101396   -1.82340360455086   -0.90341837810581
O          -2.13773941620971   -0.43748275728962    1.46060372774815
H          -2.41211041290587   -1.01091148825906    0.73023429439392
H          -1.28930964081138   -0.80800617798062    1.78628985325303
N           1.35011350512153    1.91971095746681    0.05736271359748
H           1.65923066049190    1.48142865650005    0.92571041308544
H           0.35186938724779    2.08559257408888    0.13707982802129
H           1.81589024017133    2.81353908181628   -0.02874030892654
H           1.41157341502820    0.90331918498365   -1.09359089942386
