    26
        -50.46261775  Gyration_radius:  2.5824251228 Dipole_moment: 3.343
 S           0.37298811990740   -1.73033330772481    1.38498795146044
O          -0.82130470303522   -1.66105863398998    0.54716172214148
O           1.57854490955104   -1.83491548691821    0.59960206188911
O           0.39199924924355   -0.64879505311292    2.36013301972913
O           0.25555344508190   -3.07810995287771    2.21663659215045
H          -0.57336879209001   -3.00109504083544    2.68058556757424
H          -0.49306869474725    0.54900970601270    1.73236200578032
O          -0.93222753243166    1.35355293843339    1.35738615602248
H          -1.29740370994061    1.82763349565956    2.10618421738201
O           2.76519326123514    0.43644289136523    1.28066739052306
H           2.54771313613206   -0.46679127564981    0.97708962864842
H           2.28802774723953    0.51043221864432    2.11347643087911
O          -1.90585463466457    1.84737979962860   -1.20617949183806
H          -1.18216524838230    2.45638082226143   -1.37461485859154
H          -1.75702462758144    1.50643144564789   -0.30894283630700
O           1.12622210644561    1.65656655188554   -0.41832673774264
H           1.89236692187897    1.33880890581752    0.11565332062412
H           0.41189991026038    1.75736349839084    0.23437883365012
O          -1.75737115295108    0.00262554339422   -3.14815929567081
H          -2.49811314329260   -0.60154171590505   -3.07670435637568
H          -1.94630116752959    0.74054513286704   -2.52611127418479
N           0.31474360552809   -0.59734037355018   -1.55500227939393
H          -0.36057452948260   -0.44916602013708   -2.34077923441006
H           1.09815572995686   -1.19357440683332   -1.80470769592327
H           0.67954503424977    0.33850021072629   -1.19733430263722
H          -0.19817522058362   -1.05895194320566   -0.74944254538027
