    26
        -50.46925216  Gyration_radius:  2.44567037546 Dipole_moment: 5.363
 S          -0.58957025189297   -1.51400844548711    0.14771084225716
O          -0.41789986850216   -1.10281490745691   -1.24450834702196
O           0.57879164113794   -2.17265332562377    0.68393174418703
O          -0.98116556791770   -0.35285208976631    0.97281294261253
O          -1.78057936986844   -2.51605581032151    0.20375209804789
H          -2.54635718003483   -1.98146033084306   -0.09734605386542
H           0.30678134756778   -0.06602986825032    1.99020438182518
O           1.23376449691102   -0.11672374809073    2.31917041631522
H           1.42730141909200   -1.05590232009687    2.19365902328919
O          -1.59349704001079    1.21761493984174   -0.97430117696126
H          -1.41937780979111    0.78873848234884   -0.10068886670459
H          -1.21793710757253    0.55363804276850   -1.57737902246663
O           0.51753502253589    2.80418531356593   -0.63573276362768
H           0.23106522152967    3.48133484452742   -0.02073580575973
H          -0.29428182688667    2.28787913609346   -0.86658612795471
O           2.17625200502578   -1.19408292392157   -1.23963125333343
H           1.24384222917331   -1.12429758928691   -1.54399594852686
H           2.08741814445521   -1.85714385125123   -0.53784390790619
O          -3.61041161196679   -0.66927600787891   -0.38847534266785
H          -3.82771046817656   -0.38404833518026    0.50248616361341
H          -3.11679252132553    0.06467736262653   -0.79257591591577
N           2.33712143036854    1.00031977544806    0.20036860970324
H           1.96585412561511    0.62763315556724    1.12990479258995
H           1.67313956411946    1.72904234743358   -0.15988839629938
H           3.26811320339342    1.38959419754630    0.30401587689120
H           2.34860080302585    0.16269197564521   -0.46832794231805
