    26
        -50.46683804  Gyration_radius:  2.38169109244 Dipole_moment: 4.843
 S          -0.64653465182854   -0.31425096007516   -1.09243280674240
O          -0.90611673906730   -1.73127966282968   -1.14889081656073
O           0.79092424192563   -0.00665217965973   -1.05653127878285
O          -1.33912461173682    0.49884316999662   -2.06206554036945
O          -1.19851751281650    0.20273061607624    0.31301057289818
O           1.58462904734288   -2.28287461334869    0.02927021880669
H           1.42944141766200   -1.49180278824437   -0.52430276968872
H           0.98326451818954   -2.94642159116448   -0.32094631956741
O           0.33551569762268    2.43729420306455   -2.34455104071932
H           1.15268853860700    1.93200716119993   -2.40015083059975
H          -0.37607989457370    1.74592725030967   -2.40957472877821
O          -1.72876791445560   -2.86831828356712    1.11286157788426
H          -2.66022202918083   -3.07971662753868    1.04645540686325
H          -1.46854596771433   -2.51730239999425    0.23443154823694
O           1.78179053779893    1.14540369500477    1.12415358669424
H           1.63162119010116    0.65231515230106    0.28817948042921
H           1.51729944167719    0.53653858264168    1.82261313813305
O           0.17967635676633   -1.17668850818235    1.97249887189934
H          -0.50664276573090   -1.85000367097020    2.11372216352800
H           0.82906675099486   -1.63461477903788    1.37710882660580
H          -0.68596126281069   -0.32359021284830    1.01104438974927
N          -0.15118982837725    2.65402547259953    0.20115216710097
H           0.70306697991474    2.27389791149236    0.70587244245339
H          -0.84810287621656    1.88526742091914    0.26613394342377
H          -0.49442347426781    3.52596026627408    0.58943302969113
H           0.09124481017685    2.73330537558302   -0.84849525259428
