    26
        -50.45347921  Gyration_radius:  2.8255353845 Dipole_moment: 7.803
 S          -0.80007541543451   -2.85951070378854    0.80838594987281
O          -0.00981719659985   -2.89360419046352   -0.41595404200014
O          -1.61123313237415   -4.00759110180589    1.04848728238320
O           0.29851467885290   -2.84669332170168    2.01005055870336
O          -1.46570292682140   -1.56274779887519    0.96379229755406
H          -0.31673594946695   -0.64985250183851    1.53224098843307
H           0.33082300511338   -3.77547597571328    2.21238435764663
O           0.45402292426348   -0.05811376024471    1.76038949095187
H           0.95860725991196   -0.56217488159810    2.40129436963449
O           0.90522867173347    3.03558621099358   -1.05701648640347
H           1.47866367569889    3.67150433459343   -0.62690815696451
H           0.24178127950379    2.77214496372388   -0.39796674376272
O          -0.76298324905906    2.23017268709137    1.02665204491760
H          -1.23619583161618    2.64201592546891    1.75070411059603
H          -0.29073160088435    1.45975158724627    1.40089660230212
O           1.94815263179348    1.11657258965162   -2.69759433255376
H           1.63202696754246    1.87254393028551   -2.16520586478167
H           1.67477368321176    1.28815289156609   -3.59973156164906
O          -1.99141138561457    0.43006193632323   -0.77811923243391
H          -1.83969146097735    1.19941226846720   -0.20989431598138
H          -2.09931252404510   -0.32876904850922   -0.17473395455726
N           0.52438051592890   -0.43209298578052   -0.98135825475643
H           1.15947420836631   -0.10856703244164   -1.73195517766476
H          -0.44087190451177   -0.03001397064464   -1.11366917282153
H           0.39773090260447   -1.48642096543938   -0.90301541544342
H           0.86058217290995   -0.11629108657181   -0.06215533121317
