    26
        -50.45195828  Gyration_radius:  2.47863571288 Dipole_moment: 9.579
 S           0.79316310310248   -1.68660238366471    1.37969163648489
O           0.85750025199848   -2.05677230674456   -0.04044187302961
O           1.50201572990145   -2.55026023445853    2.25644953420225
O           1.15753313131796   -0.25312040193704    1.49448738386337
O          -0.74078802411289   -1.74045947251055    1.77011703112081
H          -1.16482570537804   -0.98119216856181    1.33799627895200
H           1.53307968770496    0.12827096744465    0.10055818144386
O           1.71364943740457    0.36258460409379   -0.87589668115983
H           2.15742558488318   -0.42582886622901   -1.19989876432589
O          -0.22339269675673    1.97091553785891    1.83593322537414
H           0.15254209192099    2.49081612226287    1.10148495386075
H           0.37973784694510    1.20351781662312    1.93795593619670
O           1.03755560421288    2.99287176566801   -0.39910989383392
H           1.43736693287235    2.14179325673021   -0.63827999663666
H           1.75980607150446    3.57250332497842   -0.15195961538082
O          -1.98565090649276    0.48405298978321    0.74164328145531
H          -2.83869626730030    0.54396176282989    1.17231250208155
H          -1.36673499137347    1.13156545549220    1.22055775904312
O          -1.05102620263056   -2.45812367100106   -1.66910840017269
H          -0.35958092245171   -2.42616497450667   -0.94236069108751
H          -0.73975222689711   -3.11957094767000   -2.28845915059311
N          -0.81180513007726    0.15353385299933   -1.65479264649849
H          -0.97166734832852   -0.87913869665398   -1.84312084909464
H          -1.37657272360957    0.38543829467259   -0.81151809524938
H           0.21700238840929    0.27237982466904   -1.39523182131430
H          -1.06788472676669    0.74302851783172   -2.43900923570487
