    26
        -50.44548439  Gyration_radius:  2.76402887736 Dipole_moment: 6.190
 S           1.30289738222608   -2.32055866268281    1.19724907431387
O           0.14099936190087   -2.88354876889802    0.50115799778037
O           2.23987802383823   -3.28349027480757    1.67061726643865
O           2.08485642484263   -1.47698914995818    0.04715221516814
O           0.88387130781000   -1.29605191620542    2.14369316338292
H           0.21692317214157    0.02121924582459    1.81797248185457
H           2.64150641638289   -2.15896516250695   -0.31384276944353
O          -0.32311847378876    0.84703294244881    1.59240220783514
H          -0.47840227018713    1.28699884412286    2.43009865097646
O           2.10738626547773    1.32352567631130    0.16355831965706
H           1.33404546267296    1.36666963951802    0.74255612534082
H           2.28244098265793    0.37840509959036    0.05793092370670
O          -1.23988048487945    1.99781008667114   -0.92838722490110
H          -0.44325928660408    2.21425032622835   -1.45894360158551
H          -0.90521018264838    1.73062644768389   -0.06329166591709
O           1.14966774817471    2.43709184466574   -2.07920870992401
H           1.62276496034079    2.01075426607123   -1.32961306819078
H           1.53926813926587    3.30567236499534   -2.18495046333330
O          -2.32411374010774   -0.16085374292418   -1.96909222036880
H          -3.14829517605400    0.05879164825089   -2.40390317374862
H          -1.90858828963000    0.69988055123730   -1.69906440243393
N          -1.77827924574339   -1.21575074703472    0.41621879957432
H          -2.03549396846288   -0.95445092934592   -0.56862215789526
H          -0.96323271695420   -1.95211657197789    0.41419320655493
H          -1.42198774566286   -0.37237837336666    0.89689410149319
H          -2.57664404700916   -1.60357467391327    0.90722491366444
