    26
        -50.47213304  Gyration_radius:  2.44141417748 Dipole_moment: 2.250
 S           1.47645209708234   -1.41269672602032    0.24250596379686
O           0.26674112212529   -2.18255459580097   -0.01415694749636
O           1.86502158549495   -0.56462124385498   -0.85389962527995
O           1.38075071189112   -0.69155315769333    1.51032098077668
O           2.63458723650445   -2.47591243851697    0.42489757839571
H           2.23435192140902   -3.08711651789788    1.03323807398748
H          -0.20296055443249   -0.84654254657199    2.04783895182890
O          -1.14498436499840   -1.12167460294999    2.02251175656008
H          -1.10972652530416   -1.88649384461867    1.43162350607710
O           1.49535807917689    1.94408588663063    1.29954427437969
H           1.53928221485750    0.96461232140147    1.31026666685286
H           1.63273490333711    2.22636867436013    2.20494394063062
O          -0.56209653634438    2.47220864537087   -0.32873108951609
H          -0.21963572037375    2.10740951753766   -1.16567153012997
H           0.19339519785572    2.40939138444813    0.29339216581037
O           0.42640833878562    0.95721874670579   -2.38400100953609
H           0.97701187721397    1.24917619413776   -3.11176840810360
H           1.01623067102947    0.41722571567320   -1.80064789770951
O          -1.39138039846780   -1.02651239516921   -1.74959952445351
H          -0.77688051906813   -1.56859746887054   -1.20910479829955
H          -0.82708878013778   -0.40015533569387   -2.23152816711797
N          -2.20905074814120    0.51472416482194    0.21781543642719
H          -3.18759914860083    0.76072852556455    0.31084570763673
H          -1.86839866693874   -0.03274179481536    1.05443617012379
H          -2.03905368395157   -0.11101613770130   -0.62925227706838
H          -1.59947031000410    1.38503903953059    0.07418008146893
