    26
        -50.47002089  Gyration_radius:  2.41718538906 Dipole_moment: 6.739
 S           1.18257937379892   -1.11357171728487    0.44658084150115
O           0.90353402167302    0.08565694451890    1.24907193428153
O           2.38821649329074   -1.78067080555618    0.84621505259594
O          -0.04942459899192   -2.08190733565027    0.72149465065067
O           1.10252462731393   -0.80808783496958   -0.97468261785174
H          -0.13462473492495   -0.44568490295278   -1.88546510112093
H           0.10355615225459   -2.29507225930730    1.66770116194788
O          -0.89503583918228   -0.13228145925895   -2.44984743793561
H          -0.76624191622663   -0.53746298234834   -3.30848939120051
O           1.04834796377742   -2.07447650008737    3.09134107486342
H           0.95136478446902   -1.14764229997093    3.32907129173051
H           1.81315312468591   -2.10274033058749    2.48459843191265
O           1.91127939885959    1.76775298377498   -0.51272326067822
H           2.15982004275003    1.04407587045507   -1.09974503862848
H           1.65211521573812    1.29941670886502    0.31044357203312
O          -2.40227047983737   -0.94346060170927   -0.23115881894529
H          -1.71933385507329   -1.53895418465197    0.11153111823584
H          -2.12628879613418   -0.73006494131174   -1.13464961170872
O          -1.48516609403444    1.21296598104647    1.03487440846449
H          -0.61895585247490    0.81709498384202    1.27845441639266
H          -2.02070106164019    0.45640864531232    0.70039463307668
N          -0.61040389467523    2.24242420722342   -1.16122210565602
H          -1.07029876753924    1.92925549853904   -0.22026721889518
H          -0.92326365331498    3.15867934456217   -1.45994327655848
H           0.43533416334129    2.21211962941851   -0.97738812676329
H          -0.82981580796909    1.50622734801492   -1.85619059164279
