    26
        -50.45436476  Gyration_radius:  2.67849392423 Dipole_moment: 6.676
 S          -0.90965352286330   -0.18342665307138   -0.03819631431577
O           0.49898284496652   -0.64348735868292    0.49798941391483
O          -1.77526702785764   -0.03581660419540    1.11386584591275
O          -0.61058714280295    1.11947808992809   -0.64888305298861
O          -1.36988987858120   -1.16342003042160   -0.99791639548680
O           0.53341667415051   -1.31565252952114   -2.80771445890741
H           0.08808230351370   -1.41606284775432   -3.65109808346501
H          -0.18077440164743   -1.18400323976839   -2.14452936517036
O          -0.85780294569340    3.80488633599397   -0.06313694040382
H          -0.97482947340217    2.89877587428413   -0.39770846732838
H          -1.43633543451836    4.36070440973447   -0.58619989319850
O          -0.59892017561927    1.19449004256086    3.03796946458851
H          -1.07242193180830    0.61711271823028    2.37375765690896
H          -1.27638331478180    1.77231685806560    3.39577577998915
O           1.64756868670652   -3.48432410037408   -1.67097738618333
H           1.28241272573417   -2.71812463332740   -2.16704856343403
H           2.53806733271938   -3.23539344397283   -1.41938297709242
O          -0.06861134604037   -3.13189522669218    0.37110099009062
H           0.55652495674802   -3.44789202329566   -0.32047332951300
H           0.39949763680329   -1.63731157591145    0.59635468889428
H          -0.85387319985725   -2.83713619240011   -0.11165168507245
N           0.92914419244771    2.14942126543859    1.13963323077466
H           0.42719633558691    1.63686093015568    0.33563015950388
H           0.75275637804094    3.14459193082731    0.97958443740950
H           0.41587573621325    1.81856576268064    2.01843063875141
H           1.91582399185456    1.91674227148578    1.16482460582128
