    26
        -50.43879179  Gyration_radius:  2.5582420726 Dipole_moment: 5.717
 S           0.78449337781011    2.27259008489740    0.85884043950682
O           0.81089230276024    0.95470999743393    1.45049082096529
O           1.74665816186779    3.20575394996943    1.30618437410106
O           0.88847683894467    2.05933614787406   -0.69822224511124
O          -0.62502355325513    2.86762695227505    0.99179706040468
H          -1.32080011247393    2.16900432914141    0.77043504197595
H           1.49722561374733    1.26505537465725   -0.80717660865482
O          -0.03699007901071   -1.70605852008752   -1.32415079948213
H          -0.46410502202459   -2.46395406626265   -1.72539730325098
O          -2.41107013810177    1.17328660780607    0.25889684332673
H          -3.19858223106338    1.69063157549958    0.07735753661726
H          -2.03214936626695    0.91863207219264   -0.62872809113087
O          -1.18653983863138    0.67518375580828   -1.99753615047496
H          -0.48187517586697    1.32678597873390   -1.88608704138325
H          -0.76105301176711   -0.20023796715453   -1.90212520400776
O           2.12339448597284   -0.17077876602059   -0.58470515708769
H           1.47823721738672   -0.77069436635831   -0.99718977519215
H           1.86613751111311   -0.09986131252068    0.35034375232514
O           1.64018730158891   -3.07487916749809    0.72608646811806
H           2.48105191015276   -2.63487868160170    0.86297680694386
H           1.30672833793361   -2.76958637253768   -0.12483655231850
N          -0.87884955568671   -1.33351753695970    1.08933542448063
H          -0.33634581035846   -0.52098419182147    1.38083372759579
H          -0.60184521043609   -2.11274470395849    1.67418802809839
H          -1.85345749957268   -1.12013417240959    1.25672184758158
H          -0.43479646476815   -1.60028701111979   -0.37833323394280
