    26
        -50.45625901  Gyration_radius:  2.50970545789 Dipole_moment: 2.808
 S          -1.76191901908603    0.12155798105591   -1.09459310251682
O          -0.57502618712205   -0.75442040299360   -1.05907105376961
O          -2.93425440471564   -0.56826126405735   -1.52609409086163
O          -2.00317116419081    0.48528271171895    0.47880899620924
O          -1.44215352289286    1.38902122853316   -1.70245069200554
H           0.15057337365213    1.55256844015793   -1.59670539170454
H          -2.25645779920832   -0.37221193429146    0.85408692935333
O           1.12905898998176    1.53010053712598   -1.42016958654580
H           1.49308587425762    0.90355625021229   -2.04822273082709
O          -1.81513290087264   -2.20288193706098    0.68891415635770
H          -1.33398029353439   -1.80771831004107   -0.07389575389353
H          -2.59057938436612   -2.62194139241630    0.31004269594520
O           1.78033242709886   -1.91483382967068   -0.74145120101966
H           1.80244627616897   -2.70684260275198   -1.28012353522870
H           0.94690243795055   -1.45539940395297   -0.96545983668553
O           1.51808834670539    3.32067567359989    0.77362717346506
H           1.24638237557865    4.23473245092687    0.68365498768227
H           1.52305213727169    2.94728039461561   -0.11892043755523
O           0.84089855912524   -1.78125192901842    1.79569556628793
H           1.33256448313703   -2.01449735407629    0.98243573866493
H          -0.06034383199825   -2.10361283361866    1.66067952467811
N           0.61476327750154    0.76434363424587    1.10771526026424
H          -0.41411342658691    0.85687689624625    1.01848111617412
H           1.00814946069484    1.54999781488287    1.63126962306184
H           0.81925851838610   -0.19486045966609    1.51366059431301
H           0.98157538716270    0.84273964031858    0.12808505014928
