    26
        -50.44606078  Gyration_radius:  2.56571320277 Dipole_moment: 5.120
 S           0.25874561048289   -1.61762516255870    1.02818017396816
O           0.05490079739000   -1.36202257766798   -0.38760620774868
O          -0.47844199533295   -2.69335860785257    1.58736587215769
O           1.76838902890329   -1.78917905481597    1.27015090902832
O          -0.10012093257798   -0.33959109319253    1.81510929500917
H           0.23466129043201    0.49737705978095    1.36214746850672
H           2.26547469688068   -1.62187343141202    0.38891015596388
O           0.65070975844125    1.81405032801511    0.63130609355628
H           0.23918004143567    2.53658113713279    1.10944931761278
O           3.12958521166490    1.35049942497180   -0.40053137070069
H           3.77607611239810    1.41361948627175    0.30462223740776
H           2.27021985368956    1.60931808281958   -0.01969734482915
O          -2.61144476577646   -1.61764774651561    0.17329034537103
H          -1.75563192087567   -1.59563629345453   -0.27658990357262
H          -2.44099684594859   -2.13855618732437    0.96491246428414
O           2.69014977344161   -1.21859457706657   -1.00786225267773
H           1.77982040850467   -1.24257080608864   -1.33343803388318
H           2.93550290275476   -0.26808146860023   -0.92372657008393
O          -3.33375524495906    1.00351722364883    0.00400064883355
H          -4.28355482048393    1.03435591994168   -0.11896395823423
H          -3.11641119012486    0.06348052287624    0.16498691016965
N          -0.82751381568912    1.25452036197229   -1.36862266004070
H          -1.78352619262774    1.34503689459533   -1.02453831547431
H          -0.76719616803869    1.65810055035614   -2.29340633914029
H           0.06615622103639    1.66255975718354   -0.22576107432517
H          -0.62097781489070    0.26172026696185   -1.42368786112653
