    26
        -50.46262264  Gyration_radius:  2.47707919182 Dipole_moment: 7.084
 S           1.33620114384508   -0.88175449263769    1.58075005990703
O           0.58021895587507   -0.82597673846052    2.80436798666060
O           0.95928589960945   -1.93337249994988    0.66895775591130
O           1.41499791453149    0.41582172381357    0.88676509386148
O           2.84929551061375   -1.15566393880745    2.01079597687987
H           2.74181223909152   -1.76906435794298    2.73026497321445
H           0.24037772565731    1.51641574007470    1.10726287916153
O          -0.50314452467915    2.16974732026644    1.11582467735701
H          -0.23792966045239    2.86781033889017    1.71606084189019
O           0.04765805229601   -2.09241863170966   -1.81865379404778
H          -0.88627603750532   -1.79339773789310   -1.68483989727681
H           0.36198367072399   -2.31281812414520   -0.91909604967242
O          -1.12006345876549    1.92489924714990   -1.50014970902027
H          -1.71982880257185    2.61362580008997   -1.78911090269943
H          -0.96124939510514    2.06933126079705   -0.54325647479408
O          -1.68165896808782   -0.39067633720082    1.43974597775388
H          -1.61659460121534    0.57072780303577    1.48975706455666
H          -0.95001204398827   -0.72442785464832    1.98498375586462
O          -2.14691002025673   -0.76319295703299   -1.19734498325046
H          -2.08453629485555   -0.79768152103465   -0.22205411431040
H          -1.94618819929078    0.15325548210301   -1.42740798094697
N           1.08290367973321    0.24744822976432   -1.71122594732214
H           0.68847897951787   -0.77373583916127   -1.87711731327215
H           0.33507673647865    0.92954100532360   -1.89366872538300
H           1.31238806330859    0.29691848468494   -0.67781947922353
H           1.90371344548791    0.43863858463419   -2.27379167180328
