    26
        -50.45436453  Gyration_radius:  2.67864835151 Dipole_moment: 6.681
 S          -0.36831293422889    0.68885273837129    0.49852393412110
O          -1.63642227935812    1.29826868630055    0.15401765988292
O           0.52800560200389    1.56494045960515    1.22139150805084
O          -0.56435082753558   -0.60597705786556    1.16587461880973
O           0.32949097433385    0.27712661114550   -0.85287992692474
O           3.90449752651283    1.40961606591738   -0.65587841561500
H           3.57959405702155    0.95589575258563    0.15348242644485
H           4.09314293643469    0.71583694033969   -1.28939207684593
O          -2.87903684821071   -0.04834790590411   -1.64677626856632
H          -2.40069321292702    0.57562016605736   -1.02989560078103
H          -3.79646407814100   -0.02380507490410   -1.36641565492302
O          -2.59135645632758   -2.42147656272511    1.62143442895062
H          -2.90226879901856   -2.58183874459806    2.51297901527130
H          -1.93260662040708   -1.70837179623437    1.68679458311485
O           2.77446837458810    0.21950702118581    1.47562720871573
H           3.10877201345023    0.42744727673109    2.35008843518388
H           1.89930815251529    0.66397805878647    1.41363037131483
O           1.50503674291884    2.52824314425550   -1.13577919947617
H           1.20820538068900    2.69605776917684   -0.23003736781750
H           2.45275719552981    2.27487036130536   -1.05451558527586
H           0.77637237878704    1.12410898597639   -1.15343088237791
N          -1.41159952758893   -2.04158287819488   -0.79593116482952
H          -0.75833674515837   -2.46217970612151   -1.44759878442244
H          -2.04680564333782   -1.32296861920981   -1.27055824022630
H          -1.97367021677973   -2.72923485541033   -0.28767700613450
H          -0.89772715577366   -1.47458685657557   -0.03707798562486
