    26
        -50.47020152  Gyration_radius:  2.43850532001 Dipole_moment: 2.385
 S          -0.87765893290843   -1.13188314060585    1.65083156123894
O          -0.53907151580590   -2.14851113152105    0.67702678365253
O          -2.27143670128590   -0.80674989411037    1.75199066175253
O          -0.44384990640436   -1.69488055305542    3.07508944934760
O          -0.03579788602390    0.06220397966598    1.44274698507021
H           1.29844730864640   -0.64781589443250    0.77046068102338
H          -1.25579603829997   -1.64935715687331    3.56962766781668
O           1.97002584857773   -1.12140089197639    0.23015185865537
H           1.66260076689249   -2.03344824080106    0.26505080349180
O           1.62098781987119    2.15706216343235    0.95234369188509
H           2.47375964507006    1.71784594846876    0.97056969078434
H           0.98506768366592    1.51232092353253    1.30288567691646
O          -1.84663533255818    1.09543085982068   -0.21332531417812
H          -2.68977285786058    0.98438766160375    0.23433602400208
H          -1.19111403787637    0.78039071418358    0.44069309858926
O           0.36183429369219    2.32314625653676   -1.42488985940310
H           0.86568876211118    2.45875292748827   -0.59401118735997
H          -0.55354653486507    2.18257480244605   -1.14228711836187
O          -1.38190307266533   -1.19471022398597   -1.64442930719604
H          -1.80157246787821   -0.38268765963489   -1.30629671761836
H          -1.17090483677136   -1.71698731850628   -0.84092604277520
N           0.98659101469421   -0.15234902241980   -2.05954607151972
H           0.03274589275395   -0.63718037228628   -2.04276270916379
H           0.80254600698654    0.88779008307009   -1.89728106196227
H           1.52342276269858   -0.53120737253847   -1.23552218883829
H           1.47534230554256   -0.31273744749354   -2.93252708585917
