    26
        -50.46504434  Gyration_radius:  2.44040818554 Dipole_moment: 7.946
 S           1.70527525029099    0.57262243775548   -0.29210705689569
O           2.43301263230057   -0.65463868699957   -0.58970743247898
O           0.64721090343118    0.84616363533512   -1.22990104697474
O           1.24088973936339    0.57020434603838    1.09607779026865
O           2.75416747393834    1.74403958167401   -0.40845242790408
H           3.51730719167517    1.38104106298455    0.02869305139741
H           0.20407240581979   -0.63037137028469    1.39375127922097
O          -0.40273674723398   -1.40236041792302    1.52747158612958
H          -0.41815004436030   -1.57435704079766    2.47015286502450
O          -2.53561905684304   -0.46504463201827   -0.13433896218475
H          -1.94982208480743   -0.80680478804946    0.55400540807292
H          -2.38458756066122    0.50763303921727   -0.14728623590772
O          -0.12607776219547    2.70388812344384    1.98031155236296
H           0.44228011975241    1.97255138531891    1.67084543017662
H          -0.28695436303150    2.55197999914152    2.91261447016077
O          -1.61672190217685    2.04199289120102   -0.25672561401665
H          -0.81008026083736    1.76360734284266   -0.72009180308742
H          -1.30023084318692    2.46431673561982    0.55688575810021
O          -1.11400204489597   -0.95891999153144   -2.28439962308881
H          -1.82058393646487   -0.80459782227665   -1.59837986772411
H          -0.56560112887791   -0.15827080104658   -2.24321610858265
N           0.48482431026458   -2.37093923316645   -0.85852877318407
H           0.69185545221800   -3.32449186807694   -1.13411660126188
H          -0.21341049989079   -1.87331776016669   -1.55146843277729
H           0.06623775319245   -2.32500713191455    0.08469676330131
H           1.35744502310792   -1.77091904628829   -0.82678599824466
