    26
        -50.46728545  Gyration_radius:  2.48309324551 Dipole_moment: 4.192
 S           1.32736714153689   -1.25222885322245    0.45267799039034
O           1.39425006289406   -0.85647749457403   -0.94457334567325
O           0.38227175540659   -2.34539501642557    0.65360422135989
O           2.75846427826764   -1.81443786267386    0.82621611143972
O           1.09878152294307   -0.14068615479386    1.35191185542467
H          -0.53760963848267   -0.31300037442707    2.08867849965579
H           2.93800968569199   -2.44362542014228    0.13528752193296
O          -1.33313179139037   -0.87294837652274    2.04063438210060
H          -0.94794571757458   -1.71318136693204    1.73365873074135
O           1.06059290891194    1.77703939662980   -1.32987983859085
H           1.21429320382824    0.81390812755494   -1.28483008891003
H           1.60438057165995    2.13600975741811   -0.60356820415036
O           2.35508848346187    2.19340157053606    1.02407269330826
H           2.00034415365211    1.30019780775275    1.20662849173606
H           2.00121556385351    2.76359496859144    1.70870457459029
O          -1.44771714436539    2.25858613432384   -0.91425106561029
H          -0.46231059719454    2.09891758072009   -1.03211002094587
H          -1.72858694449927    2.70123798560346   -1.71635348807349
O          -0.96199670025661   -1.90005591939894   -1.55807364531996
H          -0.62615839337585   -2.35458414046625   -0.75862614676080
H          -0.16837239098977   -1.41974792243908   -1.84466714600381
N          -2.40991418818861   -0.11655148256205   -0.25241004595346
H          -2.07972933032211    0.85700598482208   -0.50862401321568
H          -1.92855724691603   -0.82237110658395   -0.88635586392109
H          -2.08402704932453   -0.34644985983051    0.73503938919541
H          -3.41900220931749   -0.18815798289127   -0.32279154875359
