    26
        -50.45290117  Gyration_radius:  2.4545983789 Dipole_moment: 9.132
 S           0.10349728151651   -1.69980846240126    1.10313951216515
O          -0.99149232149774   -1.36150445313880    0.19553674106567
O          -0.00614901207041   -2.95260137277449    1.76732538788533
O           1.39907855797253   -1.74775912979814    0.17628700829625
O           0.33026970027995   -0.55263003617137    2.00868371030512
H          -0.44959045141342    0.60830370875074    1.45237458809295
H           1.20114950154954   -1.09789710442133   -0.51743907531213
O          -0.93933967598621    1.43316872094762    1.11293690689634
H          -1.60159994758341    1.61387854382448    1.78129799991692
O           1.67380037739936    1.97805921498146    0.12113631919064
H           2.23621369644242    1.44908028006185    0.73915996401336
H           0.83150078764273    2.08346282010897    0.58431420863102
O           2.82369163147063    0.21508122410440    1.73758941196680
H           1.92772518753057   -0.09090446674135    2.00802353320155
H           3.21711908197819   -0.54558709019181    1.30355511901652
O           1.11714971213553    0.23888244406259   -1.67899531776047
H           1.38895523623128    0.95559550652171   -1.01527629694572
H           1.82501642796855    0.17192318861492   -2.32078527522423
O          -2.85488749972305   -1.45419206656223   -1.55790386773951
H          -3.67579016901201   -1.65903938232092   -1.10712528697395
H          -2.13766491264990   -1.69094801097190   -0.92025079531089
N          -1.50394519991561    0.84277393018512   -1.41497329771500
H          -2.14953125299321    0.01680086879475   -1.53290632658223
H          -0.55552936113061    0.54121684237032   -1.71916394404838
H          -1.81388668931218    1.66061936643315   -1.92910616651767
H          -1.39576071683632    1.04402490574158   -0.37743474053189
