    26
        -50.46202826  Gyration_radius:  2.39583395322 Dipole_moment: 6.191
 S           0.86364701085212   -1.58640589368484    0.48810718011951
O           0.70826988975071   -1.85875274420325   -0.95547496786161
O           2.14193349834578   -1.93308309979804    1.00875684328995
O           0.47008868976406   -0.19809547758254    0.76430335227582
O          -0.24934979396151   -2.45523105276432    1.19306949830566
H          -1.08954555794475   -2.05498716663305    0.90981125487266
H           0.74957608350644    1.44594301210565    0.96350748585199
O           0.77365562169525    2.42477858191855    0.97947664307195
H           1.63970265717590    2.66395537264385    1.31292903437223
O           2.63228745073971   -0.01217422337865   -1.17592780779126
H           2.05357895959587   -0.78431207284010   -1.28813575526992
H           3.10645796542017   -0.19702270482850   -0.36135363433491
O          -1.51341927048307    0.65753484533554    2.25576503188122
H          -1.43584902507984    1.60689978704277    2.12828876947342
H          -0.67699572018020    0.28823873971348    1.89701731061324
O           0.68323525276614    1.86432817411465   -1.66956130624618
H           1.48601068448118    1.30747626812785   -1.62936131425216
H           0.63906449439780    2.29153820407380   -0.79150683233489
O          -2.52032074775237   -1.00236435095065    0.48984945548236
H          -3.30832920971271   -1.45260386220957    0.79885614518667
H          -2.28168770285517   -0.34342598240821    1.19251736566385
N          -1.00853722463145   -0.12199629272339   -1.71858623910111
H          -1.41663135752466   -0.26048416325171   -2.63692865668646
H          -0.41421954329603    0.77967088179969   -1.68759015446477
H          -1.72408116968199   -0.15820090834089   -0.98553651454864
H          -0.30854193526521   -0.91122384117122   -1.48229217765542
