    26
        -50.47114363  Gyration_radius:  2.44202453783 Dipole_moment: 3.992
 S           0.45551268409962   -1.01046661561104   -0.44122933397993
O           0.73528898672127    0.23668838856830   -1.15946902136797
O          -0.77547529890223   -1.62973416447562   -0.89081203990619
O           1.58471486252104   -2.02579077858341   -0.74511204123972
O           0.44151591009922   -0.75862342816881    1.00365909330071
H          -0.10376456618463    0.76932457895387    1.31081168938092
H           2.48293750811826   -1.61988696111420   -0.63395231930027
O          -0.40520306617379    1.70793373471163    1.37247962352217
H           0.33135921540625    2.23273022564782    1.04690579552651
O           2.45448321028081    1.05218453040786    0.64057525140235
H           2.00463338809630    0.48599684096730    1.28267480385625
H           1.90109029708755    0.95846215953938   -0.16410343875020
O          -2.38115027958034   -1.29928324114767    1.12071180446210
H          -1.85107163065893   -1.60026818091329    0.34297990282820
H          -1.72845608099438   -1.23310255248166    1.82473713863112
O           3.93144527692882   -0.94562389327114   -0.27887747262096
H           4.37464942988068   -1.38134744565740    0.45182938640404
H           3.60982466982546   -0.07538306573946    0.05412124009087
O          -1.61874409713569    0.52797017982833   -2.26849850443535
H          -1.76036822019693   -0.42684718897527   -2.30389199535607
H          -0.67273372079032    0.58639382100160   -2.00310763172379
N          -2.63454932467168    1.11312919423580    0.08620890320950
H          -2.33006303510644    0.95532125594624   -0.92683070832286
H          -2.72254645787535    0.15399566881363    0.53949791152813
H          -1.83243750079271    1.57492121120521    0.58630850845276
H          -3.49089216999016    1.65130570631614    0.15238346438560
