    26
        -50.45002658  Gyration_radius:  2.51445409361 Dipole_moment: 6.067
 S          -0.21522915216270   -2.54188549420972    0.34551057189274
O          -1.47044016223437   -1.86551717847516    0.11645834195471
O          -0.15101232069122   -3.91374239094529    0.00238610006817
O           0.90571697736251   -1.73149248754801   -0.36544799665569
O           0.17637738392898   -2.36000063177015    1.83260093207737
H           0.07057673691237   -1.38606543474308    2.00403990509951
H           0.56167495269376   -1.15503748735896   -1.14444484864806
O           0.08737520462716    0.21645578842109    2.16140784573883
H           0.21581062416486    0.46657349427892    3.07821848548521
O           0.11021254311044   -0.17268074220151   -2.19386060801443
H           0.47883404901435    0.69143626280130   -1.91041314531935
H          -0.85413228179044   -0.08978248589826   -2.07973843584515
O          -1.30466597358627    1.86020929804758    0.38251061702716
H          -1.87103942018927    1.31912639557420   -0.19111882691905
H          -0.97894757183095    1.26057491908565    1.07311111323222
O          -2.47897744328612    0.03216353506956   -1.33365711422209
H          -2.18542478280022   -0.70840168225079   -0.75130748413821
H          -3.33288218946584   -0.22436197000743   -1.68418661521193
O           0.78958077391109    2.23992863450439   -1.16318505953557
H           0.65784537606776    3.02067200715442   -1.70233879623734
H           0.01019163155011    2.19217964134155   -0.54539736823830
N           2.27056851475952    0.60730692784002    0.79597625772764
H           2.31409596943402   -0.29411574021596    0.33144457738915
H           2.05094605369314    1.30226804767404    0.08806918752442
H           0.96127981204527    0.41631389952197    1.67210509236473
H           3.18166469476880    0.81787484430276    1.18125724139959
