    26
        -50.47027708  Gyration_radius:  2.3967087714 Dipole_moment: 1.896
 S          -0.56311304273386   -1.30357137620346    1.25246059711023
O           0.39176805207245   -0.30223952462808    1.73652395862140
O          -1.84401434499251   -1.20511357582252    1.87551963715939
O          -0.65556901219825   -1.20464911787066   -0.22383084402167
O           0.05334785438656   -2.70942048941421    1.55586621119684
H           0.85253254130469   -2.75577534379383    1.00792824810138
H          -2.04683621516859   -0.17951496480182   -0.23467323188035
O          -2.67185780878512    0.55328842623973   -0.07141373513094
H          -3.18484399113698    0.23763669714165    0.67941751295399
O           1.11317343185445    2.20474338316060   -1.05836167822797
H           0.65930879958590    1.66364750874360   -1.73644716201603
H           1.80161189353941    1.60994667463528   -0.68074601539038
O           2.51517781069100    0.29171415298099    0.17629156422968
H           2.63216181945409   -0.54598465309004   -0.28626516922069
H           1.85703189359079    0.09793186841866    0.86911959153532
O          -0.42547212537420    0.43710526359751   -2.39139937374443
H          -1.33339162666608    0.70687210883501   -2.54446885331474
H          -0.46192106328422   -0.21584742755027   -1.67202916906079
O           1.67381824543549   -2.31050288419426   -0.59360324870239
H           0.80515209428066   -1.85472696792373   -0.64900991765897
H           1.69971679261134   -2.94479242815188   -1.31262141800293
N          -0.58832329967810    1.97552049094514    0.87551415700778
H          -0.70795648743482    2.76167959451711    1.50436551506592
H          -1.50093122411731    1.64658187760885    0.48277073844383
H           0.10587197082350    2.20302393771290    0.06288185511318
H          -0.17644296804676    1.14244675891282    1.37621022983890
