    26
        -50.45613655  Gyration_radius:  2.56325487105 Dipole_moment: 8.761
 S           0.37323239853549   -1.61170791697039   -1.16611462412940
O           0.79528642118599   -0.36721496936340   -1.85477607869365
O           0.50352608750057   -2.76842267380894   -1.98149420243216
O           1.34605555837775   -1.73074120769568    0.08330790681057
O          -0.94342769550236   -1.41335017313603   -0.56374069339413
H          -2.00772921808865   -0.23921131417899   -0.34773995548264
H           2.21517408879954   -1.78472809726538   -0.34820968003798
O          -2.57836039312877    0.56745642909987   -0.24315754163724
H          -3.44440058808735    0.31926066849082   -0.56915231483812
O           3.29104469379238   -1.26307244616390   -1.66671754511677
H           2.45462763057813   -0.94478532607349   -2.05069372000698
H           3.86029294666445   -0.49672716922489   -1.56625273933639
O          -1.38362054178156    0.80818616443712    2.32697566038908
H          -1.99995948749811    0.81561346201620    1.58157656702672
H          -1.11736943509403   -0.13545697877255    2.41308179648230
O          -0.65241959999820   -1.74924236344968    2.08033739518040
H           0.29009175129876   -1.91737872927798    2.15207690804324
H          -0.82585530791193   -1.75462426463535    1.11880534948117
O           0.63519289941010    2.21335865951988    1.48759267194289
H           0.63268019953714    3.03393731975809    1.98187892787352
H          -0.07525466395447    1.64139086732412    1.90246144184268
N          -0.27646857275969    1.78470927760393   -0.96330786500327
H           0.17299806368023    2.03618930252240   -0.04077501657753
H          -1.26743862879977    1.53412128992624   -0.78369321346405
H          -0.19714894567086    2.53765738560173   -1.63761186008697
H           0.19925034881186    0.88478280362837   -1.34465758488430
