    26
        -50.46283155  Gyration_radius:  2.63475671032 Dipole_moment: 1.970
 S           2.40076497569829    0.38970508462544    0.43145338199803
O           2.76948319590841   -0.17923754167292   -0.83859936170518
O           1.64034852343768    1.61986507281866    0.35146519696733
O           1.71134126755474   -0.58672246643609    1.29140776152621
O           3.75518536517776    0.75209513525223    1.18028460682094
H           4.34941516531012    0.07949444863160    0.86274234704613
H           0.33729706028369    0.13403919308401    1.74087398793324
O          -0.53706574369942    0.58542418410675    1.85689953273502
H          -0.30899295224940    1.48188104528744    2.11127859960210
O           0.53477924601972   -1.72063221827170   -0.73322502231357
H           0.98243337579826   -1.43489491447270    0.09777197540762
H           1.23223274408926   -1.59866497118989   -1.38790141050908
O          -1.79989024764310   -1.93971917203402    1.09172360706235
H          -1.03776651095242   -2.22906100037790    0.57729724533914
H          -1.48056301462565   -1.23695091268056    1.67004998615659
O           0.37041401649425    2.32429406022083   -1.83086120936034
H           0.34764237827058    3.28205931858558   -1.84541339991903
H           0.97660554288569    2.07849400662921   -1.09212028322770
O          -3.54267329882582   -0.84030074612732   -0.65360733227140
H          -3.07867333369843   -1.32002347291876    0.06719173731360
H          -3.99668586845580   -1.50320421636698   -1.17433651458001
N          -1.14506378682440    0.38728026047391   -0.77633100279329
H          -2.13269674342756    0.13672852501900   -0.96181196186028
H          -0.78025309799897    1.18357867401155   -1.33669014143027
H          -1.02996919405731    0.60674902684926    0.24180689540783
H          -0.53764906446479   -0.45227641305255   -0.94134924134878
