    26
        -50.46645782  Gyration_radius:  2.55012328845 Dipole_moment: 5.331
 S           1.45303242060783    1.42796320712319   -0.50638648644490
O           0.92098771514493    0.73805054712029   -1.68450391482750
O           0.85524217003113    2.70086454177518   -0.25656121474858
O           1.40762231038129    0.52149369571305    0.65129648595701
O           2.98946342978667    1.66013516183602   -0.80278455098272
H           3.35517495838872    0.79673842184423   -0.99230316375358
H           2.13564723415040   -0.82244640494081   -0.09724196900338
O           2.29982459392261   -1.41157834563858   -0.86157306646560
H           1.83671711511289   -0.95562206276422   -1.58047960780877
O           0.52812496341371   -3.20412254291836    0.10821962752235
H           0.98145750005249   -3.81665233974235    0.68867857187245
H           1.23030712146183   -2.67802120260157   -0.33852345236479
O          -2.25780829781890    0.38262280981105    2.51119856224355
H          -2.00960621079662    1.15183044132931    1.94769819218572
H          -3.16600443737613    0.52839557620258    2.77760600370812
O          -1.64702351029104    2.15364366956394    0.60399111418264
H          -0.75105100047421    2.49604037375477    0.43198920572510
H          -1.90779603261690    1.71570774799067   -0.21638077850884
O          -1.63582763905972    0.35248343815637   -1.59246776903251
H          -1.98598027764706    0.19495348084850   -2.47039175020946
H          -0.67375702806951    0.56573659013977   -1.71039354725242
N          -0.80809421786900   -0.92358370882953    0.68645618020148
H          -1.41655034242330   -0.71397235816063    1.50154113668395
H          -0.49108236811809   -1.91037654882366    0.61349340616075
H          -1.29337627684470   -0.63532011842219   -0.18055895462613
H           0.05035611692734   -0.31496408034126    0.76838175957677
