    26
        -50.46441342  Gyration_radius:  2.35294042816 Dipole_moment: 5.399
 S           0.42852167939898   -1.60830993438904    0.84092009764748
O          -0.84725864720713   -1.23570772752688    1.45020783365611
O           0.72626101891809   -3.00131580615875    0.89693012245589
O           0.27852958259280   -1.22211238785161   -0.71394180987492
O           1.50926515207037   -0.71876442449234    1.27183892331038
H           1.13432699064141    0.81126229595537    1.48670435776033
H          -0.56545724319066   -1.63922141569540   -0.94799528268803
O           0.97968568740078    1.79788272155390    1.47635387936957
H           1.69900641395948    2.17600694369778    1.98428574464995
O           2.73100634892222   -0.18966000440245   -0.99653494161010
H           2.41344309291141   -0.42985002953287   -0.09418043309909
H           2.68408169695558   -1.00543339418049   -1.49894584964284
O          -1.76863971156435    1.25398927206555    1.33795481643474
H          -1.52928010518412    0.32125608411222    1.51782410648665
H          -0.98061807911708    1.75325387755536    1.58329405019207
O          -2.23754506561436   -2.01344611485186   -0.58470566886137
H          -1.92244284035294   -1.75652989013067    0.31538164630407
H          -2.52620540541992   -2.92508876739382   -0.51768103741472
O          -1.80354719070962    0.84216630892496   -1.27029227576385
H          -1.95445104978290    1.09027903098712   -0.32269200738725
H          -2.08827163740485   -0.07613815002977   -1.33159646519596
N           0.73011011953516    1.56935674130496   -1.20032718341114
H           0.89260608488895    2.34135523496429   -1.83809956453171
H          -0.25263398562973    1.16844443482711   -1.33451148094342
H           1.46720844163097    0.81861550251630   -1.30586531595400
H           0.80229867134986    1.87770959817315   -0.20432626189308
