    26
        -50.47771710  Gyration_radius:  2.36997759437 Dipole_moment: 4.709
 S           0.98554073581712   -1.05627509039349    0.28185212612368
O           0.23014962041750   -1.11517711301836   -0.97167700620829
O           2.24154269473811   -0.35745077960409    0.12706611919910
O           0.16960770760176   -0.44009992293444    1.33676366015418
O           1.28494163027030   -2.51293688648028    0.72708775601963
H           0.40474121076020   -2.94966034685356    0.65506970946693
H           0.84674546436829    1.04546310419731    1.63963129353015
O           1.33124430636946    1.89447226343504    1.52513660303681
H           2.21833753404857    1.60695233765936    1.28318228749586
O          -2.38864502225712   -0.87365469556069    1.39454495436557
H          -1.41762655371589   -0.69301577912025    1.44915892394962
H          -2.72755591217680   -0.79597078640904    2.28734418156699
O          -1.76077285412868    0.62012142959220   -0.90176388429601
H          -1.07397035078269   -0.07103131260361   -1.03310162064264
H          -2.27209355671113    0.30430429868926   -0.14303578371240
O           1.78456720113323    0.88254764494622   -2.13943036494018
H           1.22083349584335    0.20448325821478   -2.52679799958232
H           2.14950429268130    0.44029300969751   -1.33847687337960
O          -1.21261016431034   -3.08075235575831    0.15265195074968
H          -0.94345414256380   -2.54363930847645   -0.60786037774352
H          -1.83772553117833   -2.52278536408260    0.64464867100327
N           0.14294282492524    2.43838743324702   -0.77252367689196
H           0.81804770112302    1.95261184897676   -1.43560829645389
H          -0.73920084214077    1.84818386778851   -0.77418032034788
H           0.58659213371634    2.37899971548457    0.19096187451923
H          -0.04168363456527    3.39562951959557   -1.05064387730106
