    26
        -50.47172581  Gyration_radius:  2.52462034503 Dipole_moment: 1.060
 S           0.07137159201235   -1.94978398324044    0.43818500932158
O          -1.33627210671771   -1.59945506679600    0.56349347292896
O           0.72429241976776   -1.16021917367806   -0.59354086389715
O           0.76572120916623   -1.92571021873314    1.70872194360179
O           0.12936642439271   -3.45286192442168   -0.05480599239029
H           0.11548719561679   -3.92375234499344    0.77144810332720
H           1.10463671389356   -0.39823708532097    2.12643946084174
O           1.22423281595219    0.56315003925508    2.32777698621038
H           1.58549593511950    0.60760605881137    3.21470820254225
O           2.40876954360251    0.95578516750338   -0.15695944230500
H           2.01530141721242    0.10773027653137   -0.42081180120075
H           2.14376983085972    1.06028910114618    0.76976957291811
O          -1.33295181782666    0.95942725831509    1.41776833742606
H          -1.49723161676593    0.00521558273171    1.30235607399242
H          -0.47203264563515    1.02045538285374    1.86600722995735
O           1.21891429904699    2.65589618812575   -1.82311312381451
H           1.73583024637076    2.68156349639294   -2.62901480153955
H           1.75393547873363    2.13675755851750   -1.17269908409242
O          -2.72411384635263   -0.81348854212434   -1.60385068344624
H          -3.63924192605805   -1.07705064703402   -1.50233972647472
H          -2.24771100780182   -1.18895084324379   -0.83536312035610
N          -0.75881741221553    0.97332658097290   -1.16925232391299
H          -0.16065176198977    0.11700430751958   -1.07456587611793
H          -1.59032728708876    0.69927139246612   -1.70318999538152
H          -1.05114007811301    1.20797759581132   -0.18199650615746
H          -0.18663361503580    1.73805383198191   -1.58517106474582
