    26
        -50.45999512  Gyration_radius:  2.52458341737 Dipole_moment: 7.714
 S          -0.67666910661518   -1.63175523083651    0.19879014553556
O           0.21932148902325   -2.14593653553093   -0.83552070659265
O          -1.75031722359032   -2.49068241079484    0.56699386857816
O           0.21743489664329   -1.43515174267651    1.48799319349043
O          -1.10981216156422   -0.26532082040809   -0.18985555826239
H          -2.18137020048889   -0.12306884958376    1.20427761349511
H           0.72627133343056   -0.61653442748771    1.34983424109273
O          -2.46782803451349   -0.30208238470707    2.11369412666153
H          -2.51009604980572   -1.26479402738083    2.13925638774979
O           0.82418108699444    1.11622841085857    0.91288775376015
H           0.47570723906820    1.32151154384750    1.81057815486628
H           0.04074041084696    0.82024987938236    0.40484591796517
O          -0.40737019881689    1.02459936801720    3.27181559178808
H           0.00493439041358    0.35147866068664    3.81642702671649
H          -1.24409352777727    0.62264158153529    2.95087086843016
O           2.75696215124402    1.19224344134554   -0.92773973973361
H           2.16664278242867    1.19775340938703   -0.14658108313332
H           2.98634232812907    2.10739426265120   -1.09699237380821
O          -1.17923825820440    0.75254624174552   -2.61486515758732
H          -1.30875653843022    0.32982298406812   -1.73518587524500
H          -1.56147804208177    1.62893524586322   -2.54941434307822
N           1.21689619905902   -0.42895828649675   -2.44919269769973
H           0.38087802050633    0.12812292247185   -2.72723645431722
H           1.64610012910868   -0.87790129372991   -3.25080470856374
H           1.89880847858406    0.17708960462203   -1.94085861096536
H           0.83580839689267   -1.18843156735602   -1.76401760190192
