    26
        -50.45592382  Gyration_radius:  2.70143496821 Dipole_moment: 4.499
 S          -1.31464045038179   -0.89365038950562   -2.05664535262878
O          -0.05253276414330   -0.22749342761294   -2.31198241410256
O          -2.04212168820202   -1.34896904255870   -3.19717588768758
O          -0.90372285296884   -2.26578937613113   -1.26381187618444
O          -2.10374596435924   -0.15422824704411   -1.06747326067860
H          -1.78795889256501    1.41508740989729   -0.70206188772881
H          -1.28169256124765   -2.88814340085813   -1.87526183606844
O          -1.53414706101492    2.31954925419914   -0.39531047629792
H          -1.87544539807715    2.92407374037111   -1.05515926530595
O           2.39104086386921   -1.30702282734909    2.18840996306378
H           2.97396634004002   -2.04501404088732    2.00533100500459
H           2.81186234060950   -0.51746637158522    1.78393746223315
O           3.27446209226854    0.85560309771937    0.84476525333722
H           3.54648883727092    1.67451056621042    1.26144219884485
H           2.55305465855190    1.08614525579219    0.23205667943846
O          -2.30671897781004    0.07847292358134    1.58061310609854
H          -2.30954639479585    1.03876664180144    1.63194572852704
H          -2.50921883212653   -0.12161426083101    0.64554053729776
O           0.96576764354855    1.35956412063376   -0.55552830658973
H           0.72404909926830    0.83333107902887   -1.35977074658902
H           0.20032750907175    1.95508834400104   -0.42678178674465
N           0.11867046043114   -0.77076004540516    0.83206183614672
H           0.49123371265658    0.09067021806628    0.34600564169246
H          -0.14113235620504   -1.45024340136536    0.10911944086951
H           0.86678060353666   -1.13858300371107    1.45780501829692
H          -0.75507997726639   -0.50188481647521    1.34792922573311
