    26
        -50.47100398  Gyration_radius:  2.52100615836 Dipole_moment: 3.915
 S           0.24629414336110   -1.25128929756986    1.33103917034683
O           0.77936731241428   -1.13690783144209   -0.03037306905338
O           0.93005008219837   -0.38661235357928    2.25788502577543
O          -1.20196592005737   -1.02200720600225    1.30862143212992
O           0.47779187489775   -2.72572554639093    1.78985663572968
H          -0.08107329915630   -3.23068674304511    1.17267585425871
H           0.84829079438853    1.16020995100371    1.81912479816381
O           0.76741808881986    2.08309647704154    1.46516037394143
H           0.99853836649167    2.66221155646515    2.19371492876773
O           2.31262954762412    1.03923093093826   -0.60970297186818
H           1.97815827039646    0.14597176659794   -0.41466944635492
H           1.93231002730107    1.59596978019100    0.08752903019603
O          -1.70435544925774    1.43988107399897    0.45456311848749
H          -1.70660031321769    0.58194539623350    0.92719915082885
H          -0.91525690851501    1.89905122068148    0.79362265547878
O           1.05175719984494    1.70501351970521   -2.81707336820810
H           0.99870687842099    2.66189254638373   -2.81840624098361
H           1.67303910078748    1.46336126366614   -2.07861582951710
O          -1.58475287888427   -3.33230050789931    0.18781546638024
H          -2.28691465045872   -3.83185895761886    0.61006943239119
H          -1.64997813646024   -2.41512257344682    0.53184357662169
N          -0.79261733608347    0.17468359557120   -1.66088106242483
H          -1.44465036462810   -0.36495599329854   -2.21861466214225
H          -1.28887660067106    0.77694171384565   -0.93579263903846
H          -0.17076174847160   -0.46802135771687   -1.08962744100110
H          -0.16654809109955    0.77602760571842   -2.25696390890838
