    26
        -50.47230319  Gyration_radius:  2.43559052031 Dipole_moment: 1.597
 S          -0.30412689768768   -1.31277120943851    1.62248547942736
O          -1.38116831372043   -0.68893769730791    2.35473634561059
O          -0.57191253572718   -1.44557922842723    0.19729481878888
O           0.99427596097682   -0.69802886596622    1.84886980877005
O          -0.21057625121458   -2.79565071780699    2.18802448485588
H          -0.70147218023394   -2.71197940935641    2.99831418976062
H           1.05836331677911    0.87257878839829    1.57273866109575
O           1.04309142521577    1.84448601382507    1.36581920962241
H           1.46869395709198    2.27904483205379    2.10614852702449
O           1.83880621188227   -1.13771427230356   -0.82025342220089
H           0.94459821956822   -1.29328679307812   -0.44480152464252
H           2.41898080010196   -1.19072933424089   -0.05678833838658
O          -1.61948880856317    1.43647460836435    0.80109197598095
H          -0.77026631577800    1.83051004200602    1.06353696833054
H          -1.70186625081875    0.63911831983087    1.36392230488090
O           1.52465754662611    1.47458604273562   -1.31667384943217
H           1.48882313599539    1.78378445705071   -0.39499911463088
H           1.77600446909037    0.52453868009161   -1.25109909875096
O          -1.02514425176981   -1.49602469480310   -2.40824378141435
H          -0.13472837929922   -1.73047018197447   -2.68473693151555
H          -1.05266493719633   -1.69668191058799   -1.45452127841366
N          -1.03506764479519    1.11189015850024   -1.75258466497988
H          -1.39803478459841    1.17065932165679   -0.75411366398719
H          -1.52942542741234    1.76244448491537   -2.35237828268083
H           0.00872349239703    1.34248094242808   -1.69271148889049
H          -1.12907554688792    0.12525761345681   -2.09907733422153
