    26
        -50.44216307  Gyration_radius:  2.50322026924 Dipole_moment: 6.496
 S          -0.09880894939999    2.14815137649694    0.88923121307382
O           1.04408437739199    1.27851638296494    0.82138523297631
O           0.13039121073180    3.54363654242362    0.85985063826390
O          -1.07511621915937    1.72604251142532   -0.27358354228722
O          -0.95972494099247    1.77808485343094    2.11325191694773
H          -1.05677167057346    0.78366524401299    2.14897365451743
H          -0.55598640955435    1.65424043527511   -1.12923366172759
O           0.02012195494350   -1.37386395557603   -2.13710321351795
H           0.18333662520971   -2.09120702311938   -2.75013456374982
O          -1.36398293719798   -0.78993357859621    2.13064230710395
H          -2.14819044148277   -0.97228320598777    2.65212487451634
H          -1.61118256933126   -0.95619840569998    1.17846722621825
O          -2.03057657085160   -0.88629675109323   -0.39152966688400
H          -1.34477712559096   -1.21176158447090   -1.00381288141650
H          -1.99498224575340    0.07819189893932   -0.46113291461898
O           1.46796887585686   -1.09233829848040    2.27237057030667
H           1.50729130314628   -0.18850851052607    1.92849900734950
H           0.53179229011720   -1.25038046818411    2.43422543603402
O           0.05623504516651    1.26806877559618   -2.53482338530189
H           0.06770421243906    0.28320669330138   -2.48681103660007
H          -0.54051268682017    1.50894267902804   -3.24651539255995
N           2.04779298027651   -1.06979384043272   -0.57193074030475
H           1.91236282755826   -0.09211511624263   -0.31955482146856
H           0.83613831269354   -1.32680414290770   -1.51020116502613
H           2.99280340587220   -1.17036951553237   -0.92064236034830
H           1.98258934547437   -1.57889301605951    0.30798724850635
