    26
        -50.46436818  Gyration_radius:  2.48479838322 Dipole_moment: 5.575
 S           0.46419468209011   -1.30409086794004    0.75392102593827
O           0.35370623067389   -1.58621781035382   -0.67923734239105
O          -0.38972405877485   -2.11900959573144    1.56751096125342
O           1.93924244519669   -1.56601398757547    1.15772183484861
O           0.23086739955976    0.14465976785670    0.97910791355507
H           0.45290145336368    1.13443859651311   -0.26151938826683
H           2.45255921711484   -0.99848258473078    0.52556471722747
O           0.59957394695184    1.71199877511626   -1.05576276805939
H           0.70640431785294    2.60156213829280   -0.71398906569670
O           2.32054056494244    1.48764982865878    1.95626326787377
H           1.48345643558343    1.02866419544910    1.73791922390569
H           2.67629617903675    1.03563559257811    2.72304651294787
O          -2.36275042891273   -0.35762953363507    1.48842229201379
H          -1.91266739476060   -1.21027229461743    1.64058255995073
H          -1.61459933266565    0.25500159189790    1.46496814373162
O           3.03318495363046    0.26706194930740   -0.35025180668809
H           3.03870683190717    0.87699342665841    0.41499315248347
H           2.36177308429371    0.61478393307694   -0.95116790983355
O          -3.42810868616402   -0.26032409469814   -0.90368234057904
H          -3.10675829927253   -0.24420782374424    0.03961157515537
H          -3.93367725123282   -1.07033702542720   -0.98853017691977
N          -1.09050386803038   -0.07758923052481   -2.14171708341886
H          -1.07971025803311   -0.31824024298296   -3.12644077433581
H          -2.06845782179868   -0.09816963219957   -1.74146710638305
H          -0.49352036931469   -0.78207622640194   -1.56368578157830
H          -0.63292997323202    0.83421114514175   -1.97218162673320
