    26
        -50.44588915  Gyration_radius:  2.56031101173 Dipole_moment: 7.257
 S           1.29747874931466    1.79443853683862    1.06619471188146
O           1.99102637936920    0.68063820571814    0.46604607837132
O           1.98494514054863    3.02881090323298    1.12090366461390
O          -0.06701349168198    1.93547465851515    0.30184550549620
O           0.81749819917418    1.41530727002599    2.47992380032962
H           0.30177500964218    0.55050052125739    2.50261633039057
H           0.24979257817313    1.93402097814967   -0.66747484439358
O          -1.25259088283040   -1.62411369206131   -1.18311442807961
H          -1.63597844069850   -2.49195158887181   -1.31595310056832
O          -0.69041525680573   -0.67560694794334    2.63087472041549
H          -1.34007968914537   -0.42705056277596    1.90942152263650
H          -1.15171054986798   -0.55200773288456    3.46295770454436
O          -0.26521211311148   -0.21684364438607   -3.26003789309669
H          -1.00708653397104    0.15387212403700   -3.74051726410959
H          -0.63973268643545   -0.75917654736681   -2.53440124377876
O           1.05908345935278    1.67976904410094   -1.93075280510098
H           0.63331361420871    0.98518879217128   -2.49070369148217
H           1.80537341622306    1.25643566410089   -1.48811909054960
O          -2.17879314926929    0.15409529014393    0.66377968355840
H          -1.98758096309481   -0.46274735879021   -0.06870411743260
H          -1.64981578881894    0.94554648391337    0.48493670924098
N           0.82592393652039   -1.90079332608837    0.36416792438475
H           1.49813292064293   -2.63831882637872    0.19485338000928
H          -0.41822450432912   -1.75941843955451   -0.61119524515960
H           0.49026176661333   -1.99372515403467    1.31677497184368
H           1.32962888021132   -1.01234464100187    0.32567703611880
