    26
        -50.44083784  Gyration_radius:  2.45839609384 Dipole_moment: 5.051
 S           1.43747429581456   -0.54989368707815   -1.30684157642937
O           1.39904735947589   -0.25504625211400    0.10449698836108
O           1.47579419647279   -1.93182262151813   -1.64014887376110
O           0.24251731749379    0.14319917722440   -2.00663633204187
O           2.61296081150384    0.21460790317392   -1.95250805896623
H           2.48572189913508    1.14132262776702   -1.63000298412419
H          -0.65801883260209   -0.06501658099694   -1.57983261208176
O          -1.98189874399895   -0.38727600885377   -0.90437760931232
H          -2.61775570073712   -0.65000356755899   -1.57222838425426
O          -0.35739674693045    1.39252292452596    2.59137589475295
H           0.53798201492793    1.69210843114533    2.75736986184430
H          -0.56686384545633    1.64877388922208    1.67704290390454
O           0.21184703604881   -1.32671951860522    2.35303362315846
H           0.85745670373775   -1.04691999093338    1.68896993689787
H          -0.19735476606997   -0.49535311378945    2.64397933129140
O           1.74028017606353    2.27835786910399   -0.57415697458775
H           0.82502709792578    2.53269170178506   -0.74648183523465
H           1.66708806375190    1.53311138268762    0.04401364509428
O          -1.11971852602649    2.10676835816494    0.00580616497722
H          -1.48551037956380    1.24427308518619   -0.25145444875383
H          -1.86343182055357    2.70668980228244    0.09208784532301
N          -0.92184294224859   -2.47618188163685    0.05646319738373
H          -0.07950750852568   -2.57379961267543   -0.50549092971454
H          -1.62800842476219   -1.28250891289552   -0.44748132262204
H          -1.39264427426175   -3.37099468599984    0.09645165139156
H          -0.62324446066840   -2.22289072757877    1.00655088763666
