    26
        -50.42864406  Gyration_radius:  2.645204858 Dipole_moment: 8.395
 S          -2.63757015516765    1.19248528305602   -0.78508407488937
O          -2.01904703845963    0.10872289652086   -1.52449891374782
O          -3.85033075482972    1.70864973940307   -1.29612786933646
O          -2.81811610638418    0.71796215775329    0.68056274986307
O          -1.61523137494718    2.34483760283501   -0.65720443304825
H          -0.74051545360456    2.00835546369934   -0.27851199069932
H          -2.38105686181377   -0.18903771641454    0.81639271284706
O           0.68788720196310   -0.62681775256885    1.45554822395950
H           0.81232874368169   -0.50288100836650    2.39441463562396
O           3.05133300632862   -1.03180637626548    0.40153559142737
H           2.17645967077563   -0.91864086158963    0.86644326961018
H           3.72881833838805   -1.00879789317498    1.07645125419743
O          -1.65584962341802   -1.48964880335807    1.15585691139602
H          -0.69722333252838   -1.15180328921431    1.33827448971010
H          -2.00510285779052   -1.80744054926385    1.98923035807717
O           0.59853850197847    1.59450325955840    0.37230772307857
H           0.76216636372192    2.25572268581118    1.04462920101246
H           0.61470583277142    0.63406044740137    0.87236588633748
O           2.19969469295376    0.56482171721179   -1.60382513170387
H           2.78027025528771    0.06346912082664   -0.99899738536855
H           1.74302503515105    1.21198852065716   -1.03823445208310
N           0.25317502335349   -1.15821320427502   -1.26783394602666
H          -0.68249939348291   -0.67460265770581   -1.39043471009573
H           1.03137352018616   -0.49863722336031   -1.59578130399088
H           0.39959411065823   -1.30608417400576   -0.26165815177714
H           0.26317266522505   -2.04116738517162   -1.76582065437492
