    26
        -50.46715564  Gyration_radius:  2.58322679484 Dipole_moment: 2.477
 S           0.50897622699517   -1.68474250654754    1.18402723405545
O           0.88912166890374   -1.15520998333445   -0.12291119807787
O          -0.02237524086925   -3.01670720746531    1.15268825544806
O           1.86737854170032   -1.76724266999898    2.01385472543903
O          -0.32643140828442   -0.71268504282065    1.88816536712490
H          -0.00300511409088    0.84976490061462    1.68959231465885
H           1.89927444921800   -2.68140772233443    2.27700742395363
O           0.14791907832300    1.80136309131317    1.45535010414991
H          -0.06688120664617    2.30551221557924    2.24093198846583
O           2.47823924603332    1.04473308052978    0.02349120749231
H           2.11866821156014    0.13979019968879    0.00313749398727
H           1.91149024262717    1.52060983878130    0.64630039776153
O          -2.86864794239920   -0.08992702194045   -1.62248539640356
H          -3.75898031464827    0.23136679106070   -1.47442693394640
H          -2.71641939419873   -0.79119794732780   -0.94831108253256
O           1.69023229109822    1.88878005713788   -2.37937343811629
H           2.13973886960747    1.68187568292048   -1.52295892316149
H           2.15713136080391    1.38931482228084   -3.05044509372263
O          -2.31112522670851   -1.72360150172556    0.41324110065490
H          -1.83150141750606   -2.55996229929743    0.36859157488386
H          -1.80837232851885   -1.22343356575897    1.07738126023526
N          -0.44119456544611    0.92688575910785   -1.07999344399897
H           0.01885639169908    0.02950855059426   -0.77404973132039
H          -1.39655356981509    0.70630278708141   -1.42829048743411
H          -0.46533549515427    1.52589391193306   -0.24236309177034
H           0.18979663568674    1.36441575990751   -1.78815162781378
