    26
        -50.45546376  Gyration_radius:  2.49630086657 Dipole_moment: 7.293
 S           1.21828716625196    0.02404892314094    2.08003026584590
O           0.03108704900447    0.32424155654099    2.87516879494967
O           2.47534378677639    0.14104328109979    2.73064080136708
O           1.04632069495229   -1.52025587854442    1.64589363626506
O           1.15124799906065    0.74907869334362    0.79559824379187
H          -0.25916618754192    1.52866341859951    0.83147534032765
H           0.07979657846228   -1.64107474136512    1.66100990877927
O          -1.22619277704488    1.73718052856104    0.82527788831237
H          -1.48620418807293    1.63761565025827    1.74524424047251
O           0.68302457156830   -1.66729348664984   -1.05729560644654
H           1.27377604093167   -1.01894857957838   -1.46840961085570
H           1.00063994721530   -1.75973203161974   -0.14262492736338
O          -0.35622588401159    1.08322579227177   -3.11307139596985
H           0.49086598796416    1.10187468370592   -2.61977375341049
H          -0.17161917652856    0.64953803624498   -3.94749123350867
O           1.92352861184792    0.75116911929629   -1.67630320117291
H           2.73465717248720    1.25566944855263   -1.75083529640086
H           1.66582596479236    0.80512604502261   -0.72047093087237
O          -1.62049033631606   -1.23497965320061    1.73532231729483
H          -2.08540055074015   -1.75252252837731    2.39450155760064
H          -1.13125051743756   -0.52735671566111    2.23957464794809
N          -1.51229997928680   -0.14297270489427   -1.01365661144947
H          -1.31743033483102    0.37971815473865   -1.89534310171759
H          -0.71067070619284   -0.82636875356279   -0.90562555695686
H          -1.49914173893278    0.55823416245313   -0.21330511129533
H          -2.39830921469314   -0.63492241993980   -1.03553131644313
