    26
        -50.44388725  Gyration_radius:  2.64232228022 Dipole_moment: 9.660
 S           1.43088201111672   -1.86986123379162    1.62611842071699
O           1.92217994178618   -2.32119001882888    0.31515738403370
O           1.73862974840161   -2.71535665481666    2.72506546754800
O           2.15150691914113   -0.47762526113834    1.89885711578163
O          -0.00798374913830   -1.53422698557614    1.51280446861965
H          -0.41475987071817   -0.11769562544308    1.97513625947012
H           2.02726994732201    0.06980399252097    1.11503493239783
O          -0.65102893186149    0.84785620164224    2.10822013341561
H          -0.36213396067907    1.06452148342767    2.99562030238538
O           0.51099135848330    0.28348980853825   -2.68341715802219
H          -0.03833233271575    1.04965707187656   -2.41465833872936
H           1.38642446547376    0.45852977130097   -2.32690877123018
O          -2.41237523136424    0.85174575111709    0.03173382403271
H          -1.84084789127230    0.83688966449927    0.82095543983210
H          -3.30390638732592    0.99904958064855    0.34999188743555
O           1.07209942750727    1.25551687066698    0.01053681120619
H           0.80491311180571    2.01405809189078   -0.51740893939730
H           0.44380996304128    1.23495155844861    0.75562426646526
O          -0.98936402216419    2.32787542696154   -1.72341219010395
H          -1.53936862521321    1.81140738170630   -1.09542159273912
H          -1.59308638857337    2.76198853639489   -2.32732771223423
N          -0.09945906021375   -1.76660842302266   -1.07091089402671
H          -0.59195465164407   -2.53234883818556   -1.51592911497537
H           0.04770303413483   -0.96318771330089   -1.73382480780262
H          -0.55379190027307   -1.48089268052872   -0.18470527269788
H           0.86198308495505   -2.08834773698506   -0.64693189131784
