    26
        -50.45102337  Gyration_radius:  2.43957153285 Dipole_moment: 5.298
 S           0.33418405438085   -0.44037778127441    1.55512332516482
O          -0.86665323477004   -0.90390863284203    2.19770760532557
O           1.53185566409645   -0.46247785432619    2.32931334232672
O           0.54248554078913   -1.23080241464598    0.25730588851423
O           0.08858746296760    1.01683189653422    1.08448543182532
H          -0.00662484613034    1.09698559098200    0.07666290646823
H          -0.37001691683344   -1.69240139952328    0.01975162255441
O          -0.13649340306118    1.28162836731795   -1.43863485601325
H           0.08950762144330    2.19220404588457   -1.63866710265543
O           3.21822309365985    0.53028741049036    0.49347197363281
H           4.07709843038498    0.59261087309323    0.91584798199467
H           2.61627761239215    0.17233044778669    1.17211693198117
O          -2.73634195086744    0.91379184274361    1.55226907244933
H          -2.15453904167315    0.22058977486714    1.91712618904205
H          -2.29361045348337    1.74370330297681    1.73997517451415
O          -2.65335847087210    0.08282935534534   -1.02049734648642
H          -2.85772994239339    0.47063433584658   -0.14453311902420
H          -1.86927770196338    0.54610598186917   -1.34605907420485
O          -1.72096850558225   -2.17987288584576   -0.14220115232498
H          -2.00685450849198   -2.17096385693720    0.77894150287387
H          -2.17915731200696   -1.40423558535659   -0.58300176200648
N           1.95453907629042   -0.11144228671195   -2.02735724974207
H           2.50537479648351   -0.03110119764974   -2.87245211913721
H           1.69073662526945   -1.08069969141212   -1.90076127868669
H           2.53893598417901    0.13808484614497   -1.22919774811049
H           0.66382032580990    0.70966550463979   -1.74673614027870
