    26
        -50.46796994  Gyration_radius:  2.46665331044 Dipole_moment: 6.817
 S           1.43341588952786   -0.93214015849310    1.20777661698219
O           0.97425680388741   -1.55457056813507   -0.03571275680467
O           2.68372135191452   -0.24723687899185    1.08874312837566
O           0.36890997331906   -0.09493777434192    1.77631506420578
O           1.62756178674161   -2.11986775747239    2.23510478555568
H           0.79098551232399   -2.58237123748842    2.24615430426879
H           0.10245600368456    1.33983195239402    1.19297344569938
O          -0.12871621093663    2.21550171596975    0.77412194678948
H          -0.41975078947162    2.77905444188802    1.49249754251148
O           2.29564507088378    1.74535855678034   -0.66500944810007
H           1.59770770217354    2.20791069758937   -0.18399852232827
H           2.63561970252808    1.07523191449583   -0.04088208876054
O          -1.29289218654584   -2.02900222366355    1.12204414903618
H          -1.06018196530192   -1.26239265561104    1.67133877959234
H          -0.52507502675690   -2.07489936295445    0.51207329916432
O           0.95293957947495    0.02358762632967   -2.15184112493793
H           1.02756853365461   -0.70100717174651   -1.49373595905930
H           1.58441599611380    0.70542800169993   -1.81542353742562
O          -2.90047867354568   -0.91223800312819   -0.66474635193247
H          -3.09986013938231   -1.60003957795847   -1.30185161888852
H          -2.40238307747664   -1.35958360588827    0.06668375687620
N          -1.27258477015467    1.08922721819516   -1.41390293441663
H          -1.95060746134957    0.33518164601107   -1.13945213811764
H          -1.68649728784712    1.71241318614742   -2.09842114217508
H          -0.97626673280838    1.61937937837004   -0.56885505928161
H          -0.35990960464573    0.62218063997661   -1.81199415682429
