    26
        -50.47312046  Gyration_radius:  2.44402029627 Dipole_moment: 1.575
 S           0.16731329059754   -0.28961962951539    2.01887661704937
O           0.53913618339560   -1.59929801583580    1.51945585968766
O           1.09304390384059    0.76190271262422    1.66666599217405
O          -1.20893132030148    0.05164309259791    1.66046931476007
O           0.19532177376931   -0.40996034796685    3.59748621898128
H          -0.18498536319520   -1.27357775300034    3.71266929562115
H          -1.13267094074852    1.58504197495149    1.03691244478596
O          -0.81725396680773    2.43075090372760    0.64607474339374
H           0.00881261273097    2.58540941842889    1.11807344994028
O           2.39040098397076    0.63766681473786   -0.64900740001857
H           2.08339210282120    0.72051414182961    0.27860781208178
H           2.28236279855898   -0.30500499963425   -0.85928217517260
O           1.35450896113180   -1.89347285125883   -0.92267226066434
H           1.02239696500565   -1.80293707883926    0.00864301266209
H           1.66698222760892   -2.79593072099945   -1.00118474309135
O          -0.80470291347495   -0.80996386845776   -2.21328918777791
H          -0.03239661284180   -1.31606216943864   -1.90032127495331
H          -1.51617586408198   -1.02611037249541   -1.57207127864945
O          -2.52091367237502   -1.26095782904061   -0.21201411787643
H          -3.39214777100084   -0.86274668690136   -0.17829944354650
H          -2.01162879951067   -0.85746694062099    0.52431608480142
N           0.15536788453553    1.56861295574889   -1.67707118275882
H          -0.32648672482976    0.65712869354470   -1.96464995049918
H           0.17675420597759    2.23116219799107   -2.44351602247276
H          -0.32605019980441    1.97779442765430   -0.82898546577381
H           1.13855026306412    1.29548193383122   -1.36588636270197
