    26
        -50.46423993  Gyration_radius:  2.42272603456 Dipole_moment: 6.754
 S           1.32706393906583   -1.78032412771086   -0.81302055492348
O           0.17746744268386   -2.12498370754599    0.03678366814896
O           1.50519577170130   -2.61492411378435   -1.94481651128591
O           1.26089877497592   -0.34344325641386   -1.13828903765135
O           2.59058491768512   -1.91031216560932    0.13602837302392
H           2.36172440238786   -1.35702478630749    0.88401364881388
H          -0.03638226926780    0.17198903568050   -1.87364158507694
O          -0.86132396714022    0.59431318546962   -2.24246965725885
H          -0.75015016850288    0.59587022146741   -3.19396432782152
O           1.67492183491935    1.54181092146534    0.60635755899491
H           1.69431695709238    0.87034836348622   -0.11773800221683
H           1.50010002521163    1.02388375264966    1.40306181815110
O           0.71577246483940   -0.67627927821537    2.03231034179838
H           0.43974582867202   -1.26227743635712    1.26214199383281
H           0.70112983056162   -1.23883912615969    2.80890545947533
O          -1.77061142405131    0.56568589352678    1.59385332960009
H          -0.95005698800351    0.16563452623920    1.92863314870986
H          -2.12106431289762   -0.08816401454886    0.93337274046390
O          -2.23817301439273   -1.06321524282253   -0.41816762353822
H          -2.03557587577722   -0.54096776484905   -1.20616900422031
H          -1.45291441168565   -1.62835709079373   -0.28294236002490
N          -0.75820889882795    2.25647226150713   -0.09111835116436
H           0.27011465622855    2.15657427084746    0.16998740587160
H          -1.28786539821397    1.65878914417370    0.63993488148319
H          -1.06426641262458    3.22225686119990   -0.09578795974569
H          -0.89244373466809    1.80548367343503   -1.01725938344973
