    26
        -50.45219224  Gyration_radius:  2.42968836919 Dipole_moment: 6.859
 S          -2.01227562113541    0.83903672650136   -0.53996276709271
O          -1.38384476705208    2.08191179473366   -1.01868888712541
O          -2.88452088749552    0.21884526768558   -1.48581865191308
O          -0.76305181843042   -0.15354250206833   -0.33855644716954
O          -2.50820158347459    0.96831547717103    0.82072308766378
H          -1.33154620108049    0.71345691064081    1.74993052669611
H          -0.37822814766145   -0.31879706095164   -1.22000859804450
O          -0.52332425593930    0.63793526655710    2.35494956221791
H          -0.86636698818198    0.74234634495364    3.24394179780736
O           1.08030615968145   -1.40723871982168    1.40368440281254
H           0.39515034234243   -0.74454466703862    1.62559733501383
H           1.45071092579470   -1.71727919988330    2.23152341637863
O           2.22517218966933    0.18890997097998   -0.56019975083505
H           1.95302694965745   -0.47536693440840    0.09754456999342
H           1.86037662441095   -0.12118977264962   -1.39943157636669
O           0.54058306684423   -1.03348621905761   -2.50437369280244
H           0.44207168884695   -1.87992980483591   -2.00564132605690
H          -0.03753409362438   -1.08620584180017   -3.26745526398308
O          -0.03126045859260   -2.90190635212930   -0.69513012038434
H          -0.96480443846817   -2.69692433619448   -0.59427856649091
H           0.40516558107055   -2.46833902961881    0.05845776183605
N           0.69135610608411    2.14761166022715    0.42167260089918
H          -0.19984964658474    2.21050667118634   -0.23110587130292
H           1.36693888402786    1.46707484703646   -0.02169210212672
H           1.11444480147941    3.05764988955900    0.56491634274577
H           0.35950558783362    1.73114961323341    1.30940219763019
