    26
        -50.45860267  Gyration_radius:  2.78000210128 Dipole_moment: 4.398
 S           2.58732124468999    0.40256945940140   -0.31413323777282
O           2.35427458382969    0.65503452988833   -1.72466631101836
O           2.08765121302916    1.43283956633547    0.56374707881182
O           2.11521929365042   -0.93290235192003    0.06963469115473
O           4.16888463005267    0.37201097524586   -0.14575282503150
H           4.44498832080163    0.03178200516560   -0.99047799101250
H           0.89225175709508   -0.70680559789296    1.43959714594531
O           0.31398786339677    0.01569910818632    1.74153103209183
H           0.88433951483953    0.78987031193884    1.52208420930001
O           0.00574257392007    1.68256532817942   -2.19328198685275
H           0.92976555327616    1.39215677092416   -1.98381083170607
H          -0.08227362731148    1.57199289749199   -3.14198449131551
O          -2.21354762245420    0.04491722708182    2.83599874512310
H          -1.28063815334256    0.11334400134738    2.56596039385715
H          -2.24752837081605   -0.62328225908800    3.52185798819132
O           0.31562192285549   -2.12812868304250   -1.41315871299967
H           1.07219984478017   -1.68163852320308   -0.96028934214135
H           0.39549418631349   -3.05956493867111   -1.20372736949581
O          -3.64362129570558    0.05435881253542    0.54088153100778
H          -3.23714443146613    0.01533992674764    1.43231458360818
H          -4.18015674330152    0.84820025066154    0.52752530878073
N          -1.16077144246695   -0.05692805890373   -0.54568506964065
H          -2.18107127109718   -0.03523397717438   -0.35238275427463
H          -0.84684328366470   -0.95964162675578   -0.95417454925649
H          -0.84567104216919    0.70445865825451   -1.19817072710159
H          -0.64847520873889    0.05698617726502    0.36056350175331
