    26
        -50.47014104  Gyration_radius:  2.40823282059 Dipole_moment: 4.177
 S          -0.97235060078379   -1.38739845032971    0.77721505904888
O          -0.82301906725929   -1.59808194608809   -0.67421640068070
O          -0.33201553379607   -2.39068520482961    1.56792454290757
O          -0.44266124486043   -0.03906378765193    1.10070255098144
O          -2.49149055951382   -1.35610567586543    1.08482193224135
H          -2.91938411352622   -0.95751754922456    0.28112556319525
H           1.12142374901886   -0.69560376238011    1.52755544616896
O           2.04266400748877   -1.01659989025179    1.46921443029349
H           1.98304577589645   -1.91396383627332    1.80983723388312
O           1.48809489646452    1.93511297768591    1.30759232558456
H           2.22396431973670    1.44323715133943    1.68029893987352
H           0.71850768459449    1.35095216773398    1.39775151791153
O          -1.40419442046747    1.71778650784496   -0.56298754869886
H          -1.06738570016006    1.04651569228411    0.08510257741336
H          -1.66483985380230    2.48045251735213   -0.04307023832647
O           1.22013242663046    1.83045256423300   -1.36519491914971
H           1.47529343988173    2.07193174133465   -0.44878761375126
H           0.24832358522225    1.90195373409693   -1.36351295166809
O          -3.10405967324336   -0.33515018759573   -1.22951778391233
H          -2.71638010710521    0.55528548707371   -1.18164677127265
H          -2.36526211479026   -0.91380636971904   -1.47721101265965
N           1.58056719854922   -0.75668481864567   -1.17100526754108
H           0.59277197669475   -1.15301839587134   -1.08373416806368
H           1.49037378992304    0.30040513580998   -1.35093576201077
H           2.01607262837494   -0.89868753354003   -0.23125790292120
H           2.10180753076289   -1.22171825850249   -1.90606379887310
