    26
        -50.45813877  Gyration_radius:  2.59079080212 Dipole_moment: 4.646
 S          -0.47970163909116   -2.34853399683938   -0.17372075954810
O          -0.89775102313136   -2.42451245727139   -1.55092469794364
O           0.94546358690740   -2.07387488398294   -0.00919735718487
O          -1.27053158404683   -1.46190567760790    0.66214708691044
O          -0.71580096676684   -3.80902824404072    0.43194761665893
H          -0.48288407478563   -4.38497897920906   -0.29051609362706
H          -2.18222102215105   -0.34548992971503   -0.01362302386023
O          -2.64818086029299    0.45804337115129   -0.36843358649510
H          -3.58545989918024    0.26498330059187   -0.32708519668503
O          -0.28819179232552    0.16369922169102   -1.88300442008476
H          -1.18994966124744    0.45740694433470   -1.70338218325743
H          -0.34799250904888   -0.80562680181077   -1.90942501922806
O           1.03832356671414    2.35598929047001   -1.01268159692922
H           0.68370028566575    1.57519033131732   -1.47934023232313
H           0.39035121368733    2.54024626324359   -0.32229159355611
O          -0.89719364418583    1.89982897240982    1.06418078659661
H          -1.55699896329240    1.45061094027072    0.49175142610061
H          -1.38121275856987    2.23696447498356    1.81926346146533
O           3.11674830728385    1.35746388787576    0.22694628478018
H           3.54903463056645    0.77735335632566   -0.40282220419335
H           2.44614932504971    1.87339868094923   -0.29710855642142
N           1.14841564151590    0.05477915996360    1.43126554107447
H           2.00539261225710    0.56292257576661    1.06627763594963
H           0.31496911021422    0.66006279795960    1.29802123228742
H           1.03537346403844   -0.83874912814867    0.84338487750456
H           1.25014865411184   -0.19624348071826    2.40837058203221
