    26
        -50.47081467  Gyration_radius:  2.45150199621 Dipole_moment: 3.764
 S           0.02362385644420   -1.17541372591221    0.16480181197978
O           0.18522564995724   -0.73838300607043   -1.21663559191300
O           1.29414011866993   -1.43275360744894    0.81553250179118
O          -0.75451521372125   -0.17353711958090    0.92037013952210
O          -0.77408172493479   -2.49939834266759    0.17792253129177
H          -1.54974944387851   -2.38157124881295   -0.43352959029028
H           0.53822385452749    0.75887349457638    2.53601165250498
O           1.48076665896552    0.63683357948332    2.38156985211846
H           1.51920239531813   -0.24023608185745    1.92732524309391
O           2.74571752161879   -0.25681453071263   -1.16413072404637
H           1.80935306867856   -0.46802518974181   -1.39598505402226
H           2.93477592151346   -0.89856683099622   -0.46876827455414
O          -3.22505800728581    0.19333438082704    0.05481882045205
H          -3.12220310232135    1.01685819183441   -0.42770484913603
H          -2.36819740592427    0.04280413959497    0.51219952069774
O          -0.41238355610321    1.83625314351866   -0.71744112342547
H          -0.31391875998546    1.25882551051195   -1.48662316793915
H          -0.62716162637825    1.18889998238785   -0.00503556805762
O          -2.93731057734659   -2.11334498596737   -1.22055461167912
H          -3.59764230692230   -2.73278488025506   -0.90252012178006
H          -3.17409098300631   -1.23476624077532   -0.83949746044951
N           2.08693681946209    1.91754907185533    0.15768412405989
H           1.12416232472821    2.10271974122666   -0.24114551448388
H           2.50083079346447    1.11801517178673   -0.41956282657282
H           2.67554721507054    2.74269478829727    0.15199614554397
H           1.93780649943796    1.53193458504374    1.13890215537901
