    26
        -50.47771713  Gyration_radius:  2.36995708157 Dipole_moment: 4.704
 S          -0.73718153945915    0.91348171547828   -0.88893944294595
O          -1.47293484276336    0.20729719826200    0.16252473802400
O          -0.74638784102490    0.18800001386424   -2.13928823487954
O          -1.42535047024813    2.28695130965709   -1.11202970988319
O           0.63839442578987    1.18469921866905   -0.45029320333396
H           1.61789136591920    0.19696972086022   -1.35690551309097
H          -1.51490192673548    2.63876428100762   -0.19616948161793
O           1.94312752797329   -0.55987964084274   -1.89550804074158
H           1.34372345967857   -0.56237023222884   -2.64969370415727
O           0.22326622050276   -0.92264330827128    1.84368768201475
H           0.70986178288193   -0.15599485417410    2.17901755576241
H          -0.49823375959053   -0.53131277381219    1.30243122119380
O           1.10310070142961    1.73836103348994    2.04244077374415
H           1.88816669064210    2.28034400156866    2.13021090746927
H           0.99177572721980    1.56536147837706    1.07479752077841
O          -1.51872015091250    2.53468879718761    1.49980829015457
H          -1.79904322520622    1.61611470500257    1.36941650727982
H          -0.63837982697426    2.47229873889549    1.90607138665285
O          -1.46942132415867   -2.18141340077319   -1.27455008038679
H          -2.02666729130949   -1.87195455267639   -0.55246976194989
H          -1.27182671935082   -1.35631508547363   -1.77492971011528
N           0.95450117527716   -2.36533528481010   -0.23722186127795
H           1.41311294636258   -3.25994951242825   -0.10647437353950
H          -0.01701006958526   -2.47182572572716   -0.65694037658955
H           0.81794319838757   -1.85185652142156    0.68161546060392
H           1.49119378525859   -1.73248133968408   -0.90060854916638
