    26
        -50.45356794  Gyration_radius:  2.48496076808 Dipole_moment: 7.581
 S          -1.86424677557449   -0.51087402254224    0.63119836019986
O          -1.69142783956649   -1.68361611181264   -0.23289716841452
O          -3.18259238553022   -0.25850966764561    1.09897250878223
O          -0.96643663360729   -0.79326050446841    1.91303939646017
O          -1.23138230537374    0.65559529203937   -0.01937824369194
H          -0.64537459450490    1.58058124536430    1.16779791849788
H          -0.14025317079690   -1.19089049144832    1.58458731417963
O          -0.17036979586205    1.95695323587187    1.94949752466242
H          -0.53974058070765    1.48268030655719    2.69879763423200
O           1.56990217453723   -1.60055131332859    1.41105567810474
H           1.80192149536573   -2.04308090980450    2.22881167328916
H           1.87933013267480   -0.67267943587115    1.48352239823434
O           1.96455780245695   -0.52547280518838   -1.15022300692849
H           1.95242720667158   -1.27096202301440   -0.53660199935729
H           1.98558503326021    0.25524441080928   -0.57601626744788
O           2.16148489232847    1.01652453078117    1.22340138122986
H           2.83996893491050    1.61950849187534    1.52894419425829
H           1.28933594706806    1.41913837787924    1.49476568076873
O          -1.72128946723866    1.45131946549044   -2.45372682777309
H          -1.36653024677046    2.33594549617425   -2.55493811887753
H          -1.70927235811126    1.26376832213158   -1.48517410342937
N          -0.43333827873838   -0.90540183314250   -2.31374516323963
H          -0.89094039511531   -0.01028472917577   -2.59302431004092
H          -0.43360751537493   -1.57858425927424   -3.07186998273159
H           0.53727760844245   -0.71049369916361   -1.96929778131586
H          -0.99498887483730   -1.28259734908808   -1.45749869965105
