    26
        -50.45353985  Gyration_radius:  2.48523537947 Dipole_moment: 8.280
 S           1.74382696011691   -1.13536313760502    0.43641275393056
O           1.66867557687467   -0.25488832584355   -0.74194861188458
O           2.89021843018526   -1.97240632938575    0.49580531516987
O           1.76899187163006   -0.13832263261752    1.67474611318439
O           0.46092967023055   -1.85199834909558    0.57006025394710
H          -0.45455711859615   -1.18953938685100    1.68437420918477
H           1.52966677876719    0.72945908901500    1.29512618089354
O          -0.95634630147275   -0.65343306369444    2.35699303534528
H          -0.28635805014234   -0.41616856645102    3.00298382876674
O           0.81930392162200    2.23392488241363    0.87465673573130
H          -0.14369024461005    2.11905542744338    0.94417048925280
H           1.06642881564831    2.95634845221805    1.45378206653111
O          -1.79263403497614    1.40657117774407    1.02149700046257
H          -2.66079400146083    1.66101118653493    1.33570303227271
H          -1.51848361755348    0.60701317672807    1.56397904079389
O           1.03998108801266    0.98649141345313   -3.16797694159052
H           1.59890620145138    0.78600451136491   -3.91946733804524
H           1.50504230682213    0.64337842734687   -2.38882312719438
O          -1.51099431043272   -2.36645924346881   -1.07520571965102
H          -0.70315881848355   -2.36011206506304   -0.51031895286338
H          -2.19764532200668   -2.76531436588643   -0.53854155790619
N          -0.80897741806067    0.20995818243299   -1.27976639630085
H          -1.26551669557681   -0.72514385291477   -1.36014468199728
H          -0.71944864018933    0.67853030786080   -2.18352848215999
H          -1.28222752195015    0.79040830240460   -0.57306467903808
H           0.20886046413396    0.02099475192168   -0.97150355683862
