    26
        -50.46655135  Gyration_radius:  2.50715629945 Dipole_moment: 3.985
 S          -0.76255239394659    0.44193652098169   -1.92085889506381
O          -1.22675123349897   -0.90874610302502   -2.12954982847024
O          -1.20583270725260    1.04877406392706   -0.67586645287385
O           0.68231445849141    0.56367348199611   -2.07880239157960
O          -1.41898941673228    1.32330411198124   -3.06653905493604
H          -1.39404872765821    0.75293775696943   -3.82882706058497
H           0.88835849508209   -0.89520284527705   -1.23722631967104
O           1.09749815161926   -1.65759573139603   -0.66463476603671
H           0.68653079184436   -2.40863534270009   -1.09924775871335
O          -2.59839780718563   -1.18315509560818    0.15776026431237
H          -2.62180670044182   -0.22887039088817    0.28343759241870
H          -2.20216450201385   -1.28698217984046   -0.72631994966418
O          -0.43001478611058   -1.77248271742811    1.63611632706296
H           0.20229515475326   -1.76438103882960    0.89630521547782
H          -1.31143546178721   -1.66497578361800    1.21625988534173
O           2.69568249923682    0.78873062809487   -0.32564026584561
H           2.77048310286850   -0.15622605253468   -0.15372725100774
H           2.15323806272584    0.84313575372179   -1.13627008358556
O           0.15613047395905    0.22428825530642    3.17364957655019
H           0.84865338244081   -0.09341067490815    3.75460139677437
H          -0.15022184757221   -0.57627849707367    2.65215066184856
N           0.63467208564028    1.74026120368648    1.06632868546963
H          -0.13766163719145    1.50616442009829    0.37897137038939
H           0.46108713682481    1.19842072626999    1.96267402234420
H           1.54009746460844    1.42659723476493    0.62097084175204
H           0.64283600142172    2.73871826533682    1.24428423820015
