    26
        -50.46040604  Gyration_radius:  2.51153561518 Dipole_moment: 5.025
 S           0.95552556082153   -1.98578186247051    0.92057933638415
O           0.70642312299876   -1.43879589069458   -0.40925790082121
O          -0.06687213939412   -2.88026651962989    1.38195143117959
O           2.27746373812279   -2.86361417919109    0.77748079234186
O           1.28011065213642   -0.91632872603460    1.86238196651076
H           1.14336104381477    0.58827925501230    1.38353759671826
H           2.05492496333857   -3.63106284574397    1.29479508128181
O           0.94624218197858    1.53774496066382    1.15327133622693
H           0.95069439671934    1.99921673544466    1.99373462462517
O           1.63890060866462    0.82631359997137   -1.48350026420806
H           1.37564825064903   -0.07787813145267   -1.21747601194980
H           1.75187469862360    1.29151065274839   -0.64566189835380
O          -1.40053306971089   -0.43872681025330    1.85284958777601
H          -0.47611224971891   -0.63851611251929    2.05723944395024
H          -1.78345637077990   -1.29906955073721    1.66352316423238
O          -0.36903127654279    2.16578974153226   -2.52970725590942
H          -0.01663598226724    2.98640008247698   -2.87517502868298
H           0.41874291018045    1.61285867967624   -2.27693855023078
O          -1.77969226391679   -1.11058655959093   -1.06306985306245
H          -1.76117791552894   -1.12972302046560   -2.02239532001698
H          -0.87913469125239   -1.39626740640150   -0.77324356397427
N          -1.40864402681585    1.38209888811343   -0.20521896681766
H          -1.63433250714786    0.37012699509667   -0.43612730462653
H          -2.19212607832171    1.79536133358634    0.28808755231590
H          -0.55870151075128    1.38523363935487    0.41044431584375
H          -1.17346203591257    1.86568306152372   -1.10210430071635
