    26
        -50.45831825  Gyration_radius:  2.52732704434 Dipole_moment: 6.007
 S           0.96519600229066   -2.13368328119030    0.77744456063629
O           1.35103949185726   -2.04817370774283   -0.61129577794021
O           1.06529691636099   -3.41498032217757    1.40008214169678
O           2.02698485055803   -1.21021963410173    1.59244834974470
O          -0.32120947095809   -1.45208665936495    1.00203800291348
H          -0.49672120367750    0.02308747415466    1.50836254984166
H           2.44290873211086   -1.93190459594873    2.04934259326144
O          -0.60568679850086    0.96115761479931    1.83128948896131
H          -0.87302181334274    0.89395716915900    2.74860129999501
O           1.86238448219676    1.44920132136654    0.70851832131447
H           1.00356876512331    1.45554130727179    1.16259798512467
H           2.29572823695133    0.65376394724726    1.04089338508397
O          -1.39776375967316    2.60353485607111   -0.15191300068875
H          -0.65116158068494    3.20597560526133   -0.18674715910975
H          -1.24176028976032    2.03581801580236    0.63018311005318
O           1.40268584984970    0.30990699885082   -1.69701847553151
H           1.65870055486646    0.85097025946588   -0.91982253250892
H           1.44886015860446   -0.62633644859930   -1.37668086781324
O          -2.09591872492475   -1.56890386817214   -0.90138431591335
H          -2.92108803778314   -1.71263069259562   -0.43555441382399
H          -1.38396827477575   -1.63351695594583   -0.21899540771595
N          -1.12903673023874    0.66650238046942   -2.00963217561937
H          -1.59032424455796   -0.20382022560939   -1.65124353467043
H          -1.40995815727932    0.85135716834950   -2.96561653830725
H          -1.35913434706833    1.46801545891863   -1.37971222335289
H          -0.04660056745567    0.50746677408651   -1.94618537568880
