    26
        -50.47015255  Gyration_radius:  2.51718799821 Dipole_moment: 4.245
 S           0.31289942036757   -1.61160403126327    0.91971427078304
O          -0.03551135440945   -1.18711186282725   -0.44966703550820
O           1.73499613954218   -1.56729662784970    1.12768120298562
O          -0.43506315606619   -0.79300246073524    1.87696889795239
O          -0.16987190904748   -3.08333610869366    1.06489856590558
H          -1.13581884834800   -3.00204250139520    0.95305639625202
H          -0.37808584263237    0.78740221377010    1.63028530472308
O          -0.34083070827341    1.74350917196255    1.36524778193078
H          -0.15103174475539    2.23077323562638    2.16805778098792
O           3.44427401410151    0.21213878186973    0.11660078634418
H           4.25775716204178   -0.24960576691930   -0.09051462735814
H           2.87170636494226   -0.44894730254644    0.56476117637053
O          -2.01348859404791    0.55988644481534   -0.75202237996451
H          -1.35797992846428   -0.16657023786853   -0.67854413256287
H          -1.84266223452628    1.13505250613509    0.00262545396706
O          -0.64227088449229    1.85005288502865   -2.70465464919574
H          -1.28582519431970    1.44969100106056   -2.07701693262177
H          -0.83249425900201    1.46766207417197   -3.56181612983590
O          -2.59961593607915   -1.98547694061437    0.91820689653457
H          -2.86908762183960   -1.45757392568103    0.15921351983222
H          -2.04487888668037   -1.40342424778194    1.46696922398975
N           1.12831314555650    1.13076332339902   -0.82422634198410
H           0.71280960412688    1.61190823817165   -0.00129720905672
H           0.76727500795430    1.56737614234330   -1.69298775097009
H           2.15451209400169    1.06649950595452   -0.72305247762510
H           0.74997415032754    0.14327649990194   -0.77848760187463
