    26
        -50.47044862  Gyration_radius:  2.4296569917 Dipole_moment: 3.674
 S          -0.02930761421499   -0.85875494362789    2.02592898157884
O           0.96446346231157   -1.89397231845195    2.06311390128004
O           0.52688973704101    0.46493467269743    1.77274348931306
O          -1.13373758477921   -1.13373254218426    1.10800682019192
O          -0.67812055845967   -0.81046796242729    3.47725073041170
H          -0.12553541410301   -1.42266144110158    3.95211651966093
H          -1.87630269756854    0.03997223292073    0.32058180608891
O          -2.32864022042607    0.70273399365131   -0.26916137830351
H          -3.26568134729767    0.60777171776145   -0.09347265559177
O           2.26566673503613   -0.42150598735494    0.02704646064399
H           1.66613844232956   -0.05036041899072    0.71406832866502
H           2.87054492540139   -0.98569211961408    0.51360610276557
O          -0.22655622580228    2.53082728723841    0.23555257030264
H           0.09849403003507    1.92673646894764    0.92850849433999
H          -1.10899710708535    2.19811138791031    0.02630890755406
O           1.35139015556953    1.60987842730739   -1.68232125226292
H           1.93394501509410    1.01567545975577   -1.18671868004621
H           0.86549771542320    2.13128995793006   -0.99466834661854
O           0.29911936580192   -2.05073270849517   -0.94337925654171
H           1.15814644707386   -1.67502159431377   -0.66975051840987
H          -0.26023818889443   -1.96938062726888   -0.14721856515944
N          -0.61244802308767    0.00944511343527   -2.26779285424102
H          -0.27353653509779   -0.91757171193326   -1.84726735950877
H          -0.88795770464292   -0.09028547982304   -3.23756245811525
H          -1.39957161629286    0.33707054020203   -1.67618217006368
H           0.20633480660422    0.70569259579770   -2.14933761792970
