    26
        -50.47059813  Gyration_radius:  2.39166368292 Dipole_moment: 8.227
 S           0.63219421946753   -1.42075867173928    0.99769229705723
O           0.49947580954133   -1.41713233545120   -0.46873402447944
O           1.96548687289645   -1.11331083779059    1.42300452601758
O          -0.36989366518219   -0.50451137053339    1.56599799516701
O           0.26656968031844   -2.85605501171290    1.47525949437380
H          -0.68548119307267   -2.91607857600564    1.26848670307891
H          -0.23056046941555    1.04509142803628    1.42952829753168
O          -0.18837422217943    2.03074771666706    1.26676095275106
H          -0.65996246319867    2.43509590599289    1.99651448511921
O           2.55005880184007    1.39157091343177    0.69144237899309
H           2.51351645032504    0.48389307962693    1.05529191869994
H           1.77404254563104    1.84297788160083    1.04661815276480
O          -1.71122620951328   -0.75568827167176   -1.56699718777224
H          -1.70621915644558   -1.18204082204624   -2.42605057169733
H          -0.87004210741934   -1.06209115713163   -1.11387299926631
O           1.73661133949503    0.59802140638602   -1.67600160462908
H           2.24282887553948    0.97488359085009   -0.91147441488805
H           1.44896822802212   -0.28116858517812   -1.34906065903304
O          -2.24921771539501   -2.20529087040679    0.87636244930447
H          -2.44728270476501   -1.93183906838894   -0.02731923605842
H          -1.81047149654740   -1.43447938197698    1.28079668935615
N          -0.56727597492848    1.68532442643937   -1.38034532453244
H          -1.20088255687969    0.86148512670548   -1.48948537115153
H          -0.83461780599648    2.45503739989338   -1.98287650666503
H          -0.54642753993673    1.97061932538770   -0.37791690222193
H           0.44818247781140    1.30569674903609   -1.60362152782516
