    26
        -50.47292902  Gyration_radius:  2.43691902424 Dipole_moment: 1.944
 S           1.55699910113851    0.94927848418547    1.14745436753210
O           2.78623753706462    0.66587570539020    0.44643106363191
O           0.74334782871700    1.96115753650563    0.51377482262095
O           0.78047738421870   -0.25507441958334    1.45284178577249
O           1.98171246130393    1.51122299293680    2.57437559461971
H           2.72395461415529    2.05576767919100    2.33666942809554
H           0.95763040289619   -1.55652943059484    0.48876575303054
O           0.98864737252480   -2.29474421296097   -0.16777606168771
H           1.62790351884951   -2.92450736182843    0.16743179574855
O           1.54054884583880   -0.10049134255020   -1.75401203408506
H           1.47055224983487   -1.02547910699040   -1.46595359148556
H           2.05875728712641    0.33299263717820   -1.04660250539493
O          -1.82062407397828   -0.25746101825104    1.54214499126689
H          -0.83079781811122   -0.20993288497740    1.54037704133536
H          -2.07642448921554   -0.42562856621564    2.44987859700091
O          -1.69782705422570   -1.88174872416667   -0.68515849238254
H          -0.80817382691028   -2.24925250656676   -0.55253190686635
H          -1.91765292790021   -1.43228491837217    0.15048381444403
O          -1.81075676106105    1.98015863492108   -0.08037087365318
H          -2.10077004331656    1.31236466104444    0.56204012793610
H          -0.88237789403105    2.17288621362213    0.17739757502969
N          -1.06328152880406    0.34157539250143   -1.98777675768509
H          -1.41604683878888    1.09548968468877   -1.31590843838750
H          -1.40824094686785   -0.58820955904210   -1.61695002416849
H          -1.37789509272566    0.50913531845663   -2.93630045445439
H          -0.00589931773493    0.31343908146957   -1.94072560781186
