    26
        -50.46954175  Gyration_radius:  2.39860931885 Dipole_moment: 4.982
 S           0.36934653238164    0.83271852489138   -1.30493270370354
O           1.23642333597219    0.58165638426220   -0.15145487295394
O           0.56596886359396    2.13992629735591   -1.86808696634002
O           0.69049366516497   -0.25928295190397   -2.37245659785017
O          -1.04333929504810    0.60878025236081   -0.93195681452045
H          -1.52682734583463   -0.93129774693863   -1.26288318124370
H           1.16882603172579   -0.98818484515049   -1.88813002414195
O          -1.62854970311832   -1.90006995313811   -1.40320638915072
H          -1.18086283496416   -2.08074147285466   -2.23311983838029
O           1.87029902666256   -1.91680591683954   -0.76099760696346
H           1.19627514327308   -2.35430432419875   -0.20865089343649
H           2.05552685433706   -1.07730737358433   -0.31069229298256
O           0.26859057553473   -0.34383166962853    2.13845213790387
H          -0.03493583165116   -1.22308542469725    1.86341769804539
H           0.78796796017499   -0.02222470231979    1.37116550160929
O          -0.31233532754338   -2.69976599762543    0.73773301693188
H          -0.88796728159047   -2.44024556703357   -0.02632795331618
H          -0.57392988022441   -3.58684048165212    0.98793773644421
O           0.69327061782993    3.30505776964050    0.49492982390752
H           0.62967877151395    3.03486658838492   -0.45059502313238
H           1.53630133619832    2.94720418655312    0.78634191678371
N          -1.20947913261398    1.69273107338691    1.39392572216122
H          -2.06761765644928    2.03500669284813    1.81056224062793
H          -1.35138936716963    1.27007093598206    0.42578648183616
H          -0.50341625847639    2.46020337799192    1.21788862436816
H          -0.74831879972378    0.91576633387145    1.94535024743393
