    26
        -50.46786772  Gyration_radius:  2.43488347203 Dipole_moment: 4.843
 S           1.27192999613461   -1.48490784517372    0.18184291377022
O           1.36609369647996   -2.09408790366503    1.48276239999435
O          -0.04494389022787   -1.49703586670174   -0.41329679249083
O           1.86776029621103   -0.14523001707295    0.13312021182024
O           2.18104331726945   -2.37650152342223   -0.78310954988014
H           2.81057033958048   -2.75814187410788   -0.18025636764960
H           1.10833473372288    1.18933786003741    0.60087479317962
O           0.63357496631373    2.04118129787341    0.78394065473190
H           1.25437301061212    2.58968918572019    1.26547587842771
O          -1.00313944971695   -1.47189476833049    2.51457398165000
H          -1.56897459336437   -2.10784759002785    2.07245171616787
H          -0.09294600530657   -1.69512565345777    2.23682156825593
O          -1.80527980888954    0.98746808183585    1.74498150246983
H          -0.97139013388648    1.44869815852525    1.57644619945242
H          -1.55715361365927    0.14647533476088    2.18067106562507
O           1.23318944978251   -0.02625905242093   -2.40271109826000
H           1.64750228116775   -0.03411014881424   -1.51269260622731
H           0.79521250439936   -0.88186919537175   -2.44955615408984
O          -2.24689184455026    0.01668976102424   -0.65313288728130
H          -2.28762766438824    0.37789966602963    0.27218335360815
H          -1.58310791181103   -0.69752786632659   -0.60002455008532
N          -0.60530303130812    1.72979122738318   -1.63285364466128
H           0.11935646389708    1.11153088017559   -2.09327468128189
H          -0.94047230219479    2.45769498821264   -2.25271206585475
H          -1.40623275109599    1.05403842741792   -1.29610945113666
H          -0.17547807245908    2.12004444610354   -0.77641640057294
