    26
        -50.46902319  Gyration_radius:  2.4174599283 Dipole_moment: 6.396
 S           0.02964547559141   -1.49219795569198    0.44793804284965
O          -0.36675505234065   -1.14296063270729   -0.92707677481216
O          -1.08071417105448   -1.85011053427168    1.27732814733515
O           0.99783871609277   -2.70495008929264    0.33018175244364
O           0.82172867875494   -0.38703213614330    1.01669276270900
H           1.75904840588674    0.59170126441972    0.26993730514930
H           1.69912035308503   -2.35513091088702   -0.25639088737653
O           2.32817871298225    1.19226693630972   -0.29437592260588
H           2.83356657386315    1.72617927832056    0.32084339989269
O          -1.10814879544677    0.78503232484217    2.40662848584007
H          -1.63615579244460    0.01025543384300    2.61963951312462
H          -0.30211542881298    0.40883155627554    2.00363225194178
O          -2.10943041914827    1.88407725800639    0.19017237205496
H          -1.77326771382159    1.66600756367938    1.09038576903058
H          -2.63331950493442    1.09071617743024   -0.06267560280313
O           2.91814657934902   -1.45228117876698   -1.05328328564905
H           3.76273776515381   -1.66994709327222   -0.65250542147983
H           2.79222822607476   -0.49419205624638   -0.94432457302551
O          -2.94482764962510   -0.59847674426957   -0.39758528641258
H          -2.09078873204109   -0.89462458101079   -0.76103794533099
H          -3.02952353061022   -1.11364377912188    0.41076550773635
N          -0.16100044671651    1.38971562320637   -1.43106651277155
H          -0.21033319643291    0.32663447309650   -1.33929988019818
H          -0.94422437325326    1.74488990382276   -0.75912477122821
H           0.78230949323495    1.66203624025843   -1.11755243404470
H          -0.33394419338447    1.67720366816475   -2.38784601237001
