    26
        -50.45675107  Gyration_radius:  2.61559051253 Dipole_moment: 1.562
 S          -2.41839857420141    0.42481175788434   -0.11595679718839
O          -1.59607300304519    1.16484731795706   -1.07015442209844
O          -2.82026696733190   -0.86680560090295   -0.59033807423094
O          -1.75138419289657    0.35166969101163    1.19079509533136
O          -3.71797705724996    1.31085459717565    0.09910642009723
H          -3.39842355859037    2.20938703698176    0.06735146469373
H          -1.00008968753570   -1.09530913963935    1.02176293553370
O          -0.60583030362757   -1.94406311904024    0.70639534032445
H          -1.35581420596132   -2.54059086947920    0.63793279487645
O           2.43898968231757   -0.45859916863677   -1.64464937687186
H           2.59959037507075   -1.12221112390015   -0.94206877988679
H           2.46006661806144    0.37966101845199   -1.15338578172618
O           0.05688173598351    2.17807728674294    1.67580821431270
H           0.10002966480622    2.15573154865797    2.63403095907234
H          -0.64698604689802    1.53358983840986    1.43073666492517
O           2.27491962732970    1.25666016101316    0.51097856234169
H           2.92691300459782    1.93862930546214    0.67676942569956
H           1.42277425099791    1.60836184044130    0.85857864880639
O           2.22006227412147   -1.60061820848475    0.77590195549033
H           2.26818492757024   -0.66588933035347    1.02018997511724
H           1.30085016144966   -1.86439202502875    0.91146508365432
N          -0.14620610031067   -0.88107036868776   -1.76459593879633
H           0.90509280453956   -0.69179052674791   -1.85253054697370
H          -0.68228803739378    0.02470542228430   -1.61812634123442
H          -0.51962009681433   -1.36901555674524   -2.57187468367681
H          -0.31499729447373   -1.43663179528311   -0.89412277749163
