    26
        -50.47250201  Gyration_radius:  2.48746032802 Dipole_moment: 2.902
 S          -1.69382071326457   -1.17791827159936   -0.94255706854651
O          -2.17896157270516    0.13831627637304   -1.34007229505795
O          -0.25469093881180   -1.29160506863511   -1.08210720012486
O          -2.17916672729413   -1.56312512686777    0.36873205346777
O          -2.31841152843418   -2.21164493769519   -1.96764925146248
H          -3.23999998231613   -2.16183293059586   -1.73822197223289
H          -1.47189742206621   -0.76695360818411    1.55323178923624
O          -0.97688671401019   -0.30662405881620    2.28083216885328
H          -1.56015841029432   -0.31263336473831    3.04116694009056
O           2.64182357942423    0.37418084580201    0.68673298551600
H           3.52807614842237    0.24813794192215    1.02614658478898
H           2.13970717638323   -0.46897141325129    0.88563372963831
O           1.14775059818283   -1.70751781557970    1.15394595618967
H           0.50279399677542   -1.38436057643010    1.80022483918757
H           0.65390532026038   -1.73468618942494    0.30987362770729
O           0.43203689776954    1.85971754209232    1.39218570612533
H          -0.10864119857779    1.14943640987542    1.78669216811477
H           1.31202961437942    1.46532729048871    1.25375231666675
O           1.70003589340829    0.37957246922992   -1.90296921659727
H           1.10579535718129   -0.38684354754660   -1.80169009600278
H           2.22344261434752    0.39873651265104   -1.08083986560109
N          -0.28828565714482    1.92285086017840   -1.14765138528318
H          -0.07362660240854    2.02703586033835   -0.11246493164874
H          -0.48880401003323    2.81593421659268   -1.58245199098720
H           0.55258256047388    1.43999104515398   -1.58751353060726
H          -1.10662825964317    1.25547963866681   -1.25296205143147
