    26
        -50.46692944  Gyration_radius:  2.49826559508 Dipole_moment: 3.148
 S          -0.00457209268912   -1.44511143173412    1.51895765411646
O          -1.21671034638296   -0.67355650775744    1.76207818001474
O           1.15306364005131   -0.88036312431546    2.16503732703223
O          -0.23254029848924   -2.87317700497883    2.17270625073508
O           0.15928660558145   -1.71124969349899    0.09342490572140
H           1.86535538814066   -1.21523765253293   -0.32605502289015
H           0.01914547446902   -2.74182334043349    3.08150899714751
O           2.62135381376032   -0.65829604259987   -0.08530787929675
H           2.53043990121503   -0.59971400034437    0.87706684574514
O           1.56654198150091    1.69985570035905   -0.84895642659115
H           0.97229158875222    1.82199891463096   -0.08834658661879
H           2.10010186127492    0.90441441293046   -0.63103307874678
O           0.03607180388727    1.65744841635362    1.44457055399195
H           0.74465564878390    1.74646970496447    2.08570801905875
H          -0.36138214683895    0.78562896240714    1.63029657912651
O           0.30414904583002    0.99040511620549   -2.99587187762793
H           0.97196268171539    0.53615419885669   -3.51210120318567
H           0.79376760669901    1.38268623420487   -2.21361657355332
O          -2.60758224612775    1.07430369983285    0.26685778296722
H          -2.06623808899852    1.84623711991562    0.46387351823666
H          -2.35253828147160    0.41620448658802    0.94124135306261
N          -1.41245282276126   -0.42029508315070   -1.57759626456480
H          -0.77043516183670    0.13157494426709   -2.22227021922062
H          -2.03630826260792   -1.01860940483679   -2.10804878314803
H          -0.81236042451414   -0.99960730153841   -0.92794795799965
H          -1.96506685891675    0.24365866618361   -0.96617608349987
