    26
        -50.45015290  Gyration_radius:  2.45670367221 Dipole_moment: 2.682
 S           1.20803558188590    1.59319190183099   -0.02304266609541
O           0.15843935054986    1.73245855539563   -1.00323311978031
O           1.16618317781154    2.52763017518052    1.05119932051247
O           1.13493715409997    0.15381311814041    0.57060600612084
O           2.56982603222963    1.58863506405464   -0.71612390859160
H           2.61371486731264    0.72833108117791   -1.26784090846469
H           0.54756939502009    0.26054120150808    1.40002439396410
O          -0.42574909881930    0.62532448566783    2.49929712412320
H          -0.07772330939989    1.50613473608737    2.67542656309359
O           2.50644645661089   -0.54532863530305   -2.09493142234760
H           1.52265572547735   -0.71483155388782   -2.14914248897274
H           2.79430121697955   -0.36828865749788   -2.99365952364819
O          -1.73107643378516   -1.88014215534127   -0.39580143089683
H          -2.08473324886365   -2.73229533519662   -0.65528936318372
H          -1.15954274321088   -2.04312691381978    0.38790637232395
O          -0.07886814581470   -2.17933104469851    1.70791845137812
H           0.73868098199160   -1.87952863970360    1.29720992601501
H          -0.32082146859807   -1.49801283251772    2.34574750937112
O          -0.09101567196041   -0.62353416809197   -2.23993062183227
H          -0.13397316827912    0.29537216715306   -1.91754310699616
H          -0.65794606005682   -1.13141253258307   -1.63158540770852
N          -2.13935361523295    0.93847961079183    0.57236569523566
H          -1.21685707454888    0.76040841249407    1.87160852047934
H          -1.51060833557729    1.42044686002199   -0.06748638634973
H          -2.31804375980195    0.01988385681915    0.17655749868965
H          -3.01447781593176    1.44518125231325    0.59974295351280
