    26
        -50.47398933  Gyration_radius:  2.39990719581 Dipole_moment: 6.571
 S          -0.45229816782557   -0.62302591019328    1.41366595111611
O          -0.32001224187266    0.65950958869761    2.07603160936375
O           0.80422753870497   -1.24978459190442    1.07565688258144
O          -1.20359588049388   -1.60697015382719    2.36710713990778
O          -1.30846996757788   -0.48563208881326    0.21284825734253
H          -0.96788370826278    0.71821109876452   -0.79998389705765
H          -2.01821141133266   -1.11655090926721    2.58698291334481
O          -0.71444946212783    1.40955613382321   -1.46673957674109
H          -1.53537115619505    1.75731732750633   -1.81828380674587
O           1.17563701970684    2.23409835074556    0.49691848993908
H           0.55030556187044    2.27906920166481   -0.23747208993123
H           0.69452584452421    1.77601590393641    1.21289502716153
O          -2.96728740405977    0.36340890004614    2.26976144803566
H          -2.98443990280890    0.20588044195766    1.31914609487504
H          -2.14133822361218    0.84955895841969    2.42693946218782
O           2.70586366177634    0.17058699441112   -0.13134838317538
H           2.20672571315350   -0.44326632103743    0.44510222613602
H           2.36788237325032    1.05959565035456    0.13518587552325
O          -0.07728802581355   -2.30602522973558   -1.25396010449562
H           0.49549837394492   -2.58757556169535   -0.52939236833414
H          -0.71979609802449   -1.72045598847794   -0.79912203184998
N           1.29124701739689   -0.26693064741325   -2.24008913294265
H           1.74856466845161   -0.31815080280709   -3.14293918053296
H           1.99757598030401   -0.07721967196667   -1.42253149329065
H           0.58432054989034    0.48827014383476   -2.20561499662385
H           0.78806734703397   -1.16949078701581   -1.99076429581445
