    26
        -50.46736065  Gyration_radius:  2.56497551682 Dipole_moment: 3.288
 S           1.02961548926021   -1.31138963226088    1.17615074728301
O           0.14714366108365   -1.91527173597596    0.16957052997476
O           2.13698403391430   -0.61933828279469    0.58490841859331
O           0.24984720258086   -0.49643674885732    2.10447123547139
O           1.61332949981549   -2.50991423464928    2.02811680355350
H           0.85523470036923   -2.87027519863308    2.47903159944106
H           0.23852037501308    1.03178071481321    1.55418791066591
O           0.08742960597208    1.87688201666522    1.06120159995261
H          -0.53886109860400    2.38571755243442    1.57910256752975
O           2.44342191754506    1.80291089356030   -0.54683120984276
H           2.53393990273905    0.91629578662693   -0.15085638468424
H           1.79122116849190    2.24383892488248    0.00972147053973
O          -2.21929625891333   -1.39975497222760    1.23455156277746
H          -1.80813829763421   -0.86536409788616    1.92379455204452
H          -1.44955809997424   -1.78753655093929    0.77125925085663
O           1.37314059705528    1.10385469550952   -2.85973208036821
H           1.95980981434602    0.44337962164120   -3.23123198821924
H           1.85916846022271    1.48883993622848   -2.08534572932133
O          -3.15160931226536   -0.04382246365692   -0.87955975941039
H          -2.94715116974110   -0.51897180721666   -0.03987718366895
H          -3.76216385006332   -0.60356862022817   -1.36041498908075
N          -0.49584116270214    0.33075474549017   -1.12513770441150
H          -0.18729052370421   -0.59443534472042   -0.74503683579473
H          -1.51932720457661    0.28350729679039   -1.30717657664185
H          -0.32720631904597    1.04170379094971   -0.38511100576464
H           0.08763686882863    0.58661370444646   -1.95975680147757
