    26
        -50.46173950  Gyration_radius:  2.46566383085 Dipole_moment: 3.772
 S           0.97257391344556    0.89333206391693   -1.96615423353399
O          -0.38263001099834    1.44978123614855   -1.91838722573268
O           1.55782957387404    0.81096854027647   -3.25786917420930
O           1.85940245968953    1.84837113931886   -1.07287457871227
O           0.98224240635619   -0.40354821133282   -1.23994336312076
H          -0.11929506882880   -1.53845266556125   -1.16684175914307
H           1.33282307568630    1.96007395157698   -0.26595945427864
O          -0.86491955680932   -2.18585232185670   -1.03405872360682
H          -0.73807206062456   -2.87459444310012   -1.68729617125549
O           0.81657648742260    1.78597447232760    1.45447174897187
H           1.31816810485222    0.93653722156121    1.47526315754013
H           1.28238058466542    2.40334108785238    2.02076916292313
O          -0.31954070561278   -1.83076331620943    1.72411738781009
H          -0.55626244124592   -2.15224662021086    0.84156073722511
H           0.59938896691700   -1.53582017687075    1.65642409465614
O           2.08441629549602   -0.51488965115167    1.06366824646038
H           1.70361419758354   -0.50467600739318    0.13736077955130
H           3.03501336737261   -0.56680168545687    0.95513165062232
O          -1.61335026305896    0.50114669798601    1.85178595766578
H          -0.86049877937505    1.11199732987307    1.80276494425779
H          -1.21443721980750   -0.39038975725689    1.98967401482393
N          -2.20671639802018    0.15537616035683   -0.67649318217887
H          -2.07690541134693    0.34893769510782    0.36863818916917
H          -3.13917731751120    0.39916337582475   -0.98939023381060
H          -1.46058159858341    0.73258205962554   -1.21330233348356
H          -1.99204260154747   -0.83954815535600   -0.85305964862808
