    26
        -50.45547653  Gyration_radius:  2.44523134343 Dipole_moment: 7.070
 S          -1.84009467214319   -0.97607124842604    0.14426701753868
O          -0.99437727665731   -1.31945861190014   -1.00969912377787
O          -3.10704635707505   -1.61608046359311    0.19151647012479
O          -0.98375019569213   -1.45982271334644    1.40455869116915
O          -1.89283359619438    0.49051949980734    0.27391055969231
H          -1.20248107455288    1.00018485187851    1.63748064784198
H          -0.08985501428614   -1.61947074811187    1.05797881072555
O          -0.62410119328513    1.13904832849685    2.43126775026554
H          -0.76814888006268    0.35263784317205    2.96421059003827
O           1.65530128550851   -1.67110052954615   -2.09140105726019
H           0.72988514952501   -1.93316595176276   -2.15722606387163
H           1.88115848582145   -1.83670228937032   -1.16765225087553
O           1.67651760756132   -1.59405631868601    0.79391401430818
H           2.09145062195587   -2.09115219548652    1.50090867119803
H           1.82147022469158   -0.64758374558861    0.98248996918368
O           1.63974488881092    1.09257488888364    1.18952886775468
H           0.77922484038385    1.14516281262747    1.71125861032679
H           2.16997743982505    1.83705118514045    1.47657978667801
O          -1.54118688799890    2.32427702693532   -1.60993945389754
H          -2.27272777073096    2.28818288553158   -2.22738289000056
H          -1.79868583182409    1.74918061101817   -0.85480074093958
N           0.55873201179594    0.69806215904934   -1.33949759656488
H           1.25264879527749    0.35039439570571   -2.00722149402661
H           1.00752813908676    0.95606704297257   -0.44451945143437
H          -0.03494295583796    1.47836521908640   -1.68201139756010
H          -0.11340778390578   -0.13704392448751   -1.16851892663451
