    26
        -50.46206776  Gyration_radius:  2.57747954421 Dipole_moment: 2.328
 S           0.84843619176559    1.14212114583606    2.05509433339300
O           1.55687474702089   -0.04785705144462    1.63985374119290
O           1.34983531316943    2.37710104269091    1.51718577038267
O          -0.59733328906091    0.98812846024724    1.81363828059584
O           1.00750704647420    1.24052791463196    3.63884871679346
H           1.07428159627374    2.17901403303445    3.78695205968161
H          -0.84986108007657   -0.51955356874828    1.42899034719774
O          -0.99692950729514   -1.46013014928411    1.13472126987357
H          -0.80167076748302   -1.99259731500813    1.90738425935042
O          -0.47607501523640    1.92400584090256   -0.62302891156900
H          -0.55664429516727    1.63980755558581    0.31757020081447
H          -0.24729252501114    2.85488378664722   -0.57525454447650
O           1.88789787109117    0.57904968844220   -0.90668797681434
H           1.13139643560344    1.19098615270395   -0.98978951541512
H           2.05045457240947    0.52925966315887    0.05533230586178
O          -2.28835260742520   -0.14905843655420   -1.15338408496700
H          -1.77700309310194    0.67086727294594   -1.07402989703175
H          -2.19340054228358   -0.59878530776237   -0.30588936542104
O          -1.05821159398923   -1.65468012017590   -2.94063766995950
H          -0.88394311955193   -1.10445049583856   -3.70572894707102
H          -1.66690771190182   -1.13266112954044   -2.35894443174795
N           0.70566464365118   -1.75478383361829   -0.93908080827921
H           0.09319234228458   -1.83743724348807   -1.78934927311069
H           0.09049686372131   -1.68946631890834   -0.08825333099830
H           1.34052582294749   -2.54042626033043   -0.85457507135746
H           1.25706170113604   -0.83386530610745   -0.99093743693677
