    26
        -50.46810380  Gyration_radius:  2.56223021381 Dipole_moment: 3.961
 S           1.43581785333894    0.72269548877614    1.37185355628029
O           1.70761761386882    0.52437199629271   -0.05573528991217
O           0.40184191061720    1.70244163287644    1.61284098106020
O           1.19708187729763   -0.54450739249586    2.03280290709692
O           2.76548335376511    1.33105127020045    1.97980973972620
H           3.44082079576038    0.69246194839762    1.76967830669943
H          -1.89371327037750   -0.22993042515323    2.01439017432073
O          -1.65375342194843    0.15604262697955    1.17022667779982
H          -0.93794945872885    0.80597270296861    1.37214174798134
O          -2.15002924192158    1.21692835154176   -1.46669575905362
H          -2.31871241565080    0.93827457763356   -0.55967316159010
H          -1.34675551372519    1.78003361127646   -1.41885363312120
O           0.17467251056525    2.51532629378705   -1.01821828953381
H           0.84237443309029    1.82537212903825   -0.85915986182478
H           0.02737969376281    2.89198418594353   -0.14397579037385
O           1.04813960747627   -3.00930633803225    1.05329105516797
H           0.85883419408706   -3.62652819527725    1.76081737237408
H           1.19471572753873   -2.13777635971962    1.48123845983860
O          -1.36456230620731   -0.82210635781382   -2.93985198891745
H          -0.88964190916205   -0.45523679666677   -3.68693587871043
H          -1.80285065504978   -0.05255136943329   -2.49198557778540
N          -0.15250220955814   -1.26802205403059   -0.61428289958735
H          -0.86199382015358   -0.87740618220048    0.03962272501348
H           0.16068820966277   -2.18672402140187   -0.26384010107825
H          -0.54834574426882   -1.27839608910253   -1.58787673910350
H           0.66534219592953   -0.61446523439917   -0.55162872275834
