    26
        -50.46029214  Gyration_radius:  2.46835674186 Dipole_moment: 7.523
 S           1.10142282405674   -1.44792928957699    1.31603250566175
O           0.81518994776667   -1.88606188316166   -0.05078972474732
O           2.49273008797759   -1.39146909058923    1.62382486342887
O           0.40981436877487   -0.15976985066248    1.55463983272479
O           0.41285286668060   -2.49077968111845    2.27580551435983
H          -0.51406355074052   -2.51271321238587    2.02071598395171
H           1.62114906141799    0.62230412732233    0.69804247584113
O          -0.53405934182626    2.27750695094186    0.94964010901179
H          -0.22040553571489    1.46569513578306    1.38649745708333
O           2.31515428161633    0.99511072905146    0.11988549161337
H           3.08081292392394    0.45180052468681    0.32941561635960
H           0.23038156375671    2.61676838933011    0.47658756501906
O          -1.90665795594895   -1.32985105426678    1.08759008115232
H          -1.12880216728041   -0.78406656561136    1.30532830964952
H          -2.60747473241645   -0.70595524636719    0.87770236220832
O           1.35765483470525    0.97506873543501   -2.35994050082790
H           1.73896340102942    1.05879119209430   -1.45165023168596
H           2.04063947184984    0.55950605317961   -2.88893916521031
O          -2.47659506278362    1.12206826854319   -0.42530500018463
H          -2.98175501154293    1.79202251086488   -0.88757270047757
H          -1.81661828794161    1.60774001810347    0.13074396014646
N          -0.70949594548171   -0.56532417765856   -1.63445509921130
H          -1.11925474074306   -1.18127911058535   -2.32783417309541
H           0.01169987907032    0.07073076254102   -2.05594461613100
H          -1.44802496940436   -0.00200918948276   -1.16067846931710
H          -0.16525821068563   -1.15790504648082   -0.90934242728728
