    26
        -50.46903884  Gyration_radius:  2.42973218542 Dipole_moment: 5.006
 S          -1.37757461456871   -1.38589632910400   -0.67394661964902
O          -0.24137616296139   -2.14788043918733   -0.18699534882165
O          -2.24455830801963   -0.86740974910547    0.34954691730194
O          -0.94261211975260   -0.33447737198246   -1.60582387366756
O          -2.22387029495740   -2.40902773922826   -1.53769360324325
H          -1.56419450705832   -3.04289820118660   -1.79810497147311
H          -1.29098549552793    1.00058593582370   -0.64329873868623
O          -1.35113047739235    1.71456087699726    0.02494552398611
H          -2.16338794368749    1.52212418469138    0.50098722342527
O           1.12517778588238    2.88414313991341   -0.26314888875941
H           0.15709372382331    2.82500783897008   -0.23276503196104
H           1.41923947316817    2.63676148126427    0.62080593061818
O          -0.77806377074576   -1.39463765132904    2.51824846755001
H          -1.45818829672398   -1.21352070145927    1.84191569287449
H          -0.27743698162403   -2.13356712474427    2.16221112958379
O           2.05554228235626   -0.91634326639628    0.36149351459255
H           1.30849396330933   -1.52858535335145    0.19429363910957
H           1.70184639970153   -0.28968611720437    1.03417496806569
O           0.59530417949800    0.80173569265545    1.80028920070147
H           0.16280534957298    0.08699123115424    2.31208583074169
H          -0.11741171712378    1.14881824008927    1.23500191394485
N           1.52080518701276    0.62018625823492   -1.63675286488017
H           1.93323154986110   -0.03085113926055   -0.87440862515900
H           2.05553224255624    0.61508600451271   -2.49711817091739
H           0.54643818704316    0.25232891480386   -1.78277024958855
H           1.44928036640023    1.58645141435859   -1.22317297570440
