    26
        -50.45445114  Gyration_radius:  2.76671758534 Dipole_moment: 8.384
 S           0.48822173177137    2.69450773887304   -0.74195583490959
O           1.34932403803857    1.87033975554388    0.12277613648944
O           1.17229152277049    3.71682757347679   -1.44810651007157
O          -0.33654498085999    1.80574257239305   -1.59081418974341
O          -0.54966792638968    3.38397680860277    0.24632296309313
H          -1.13189977039371    2.68402163643195    0.55480607295915
H           0.51805706707531    0.31387962366417   -1.72420293323605
O           1.12208075037597   -0.29957287733570   -1.25177495830779
H           1.61719680559906    0.34867747898297   -0.70888004901627
O           1.17879479932374   -3.05455118913580   -1.32561680762244
H           1.30715740531886   -2.09037062151940   -1.36117653567385
H           1.05658780931931   -3.34294452468585   -2.23133772389235
O           0.53948546227191    0.95984616746507    2.40328071908035
H           1.25133369442636    1.04615871216277    3.03792603476221
H           0.85827537282550    1.40953770716481    1.57653833587375
O          -2.25674794481234    1.10072796339466   -0.08152135176773
H          -1.56388712996624    1.35435643687975   -0.75827669259667
H          -3.10407239806748    1.31928272435842   -0.47095807004199
O          -0.55474888595012   -3.53069675586782    0.69226407570538
H           0.05558082494781   -3.48020608577449   -0.07411043565968
H          -0.16924562945657   -4.16016134331595    1.30287775441643
N          -0.58264753366873   -0.83100411925757    0.78142065560360
H          -1.45210841981128   -0.32699365091175    0.53744992518173
H          -0.16537429590190   -0.33746755714106    1.60010447488105
H          -0.73107564001591   -1.84651469255580    0.93787635363673
H           0.08363327120013   -0.70739946190300   -0.02491140918085
