    26
        -50.45189003  Gyration_radius:  2.46269587433 Dipole_moment: 2.888
 S           0.87649914605549   -0.50972991681477    1.60501274139202
O          -0.38888277996217   -0.18520165993554    2.21573874570509
O           1.24828294458848   -1.88531717674036    1.60810704343364
O           0.85666290085861    0.02031792170212    0.15032231287016
O           1.99058771371709    0.35343758134974    2.21414715436534
H           1.59902224926859    1.27555292995591    2.15703700302890
H           0.10565479438121   -0.41096132175408   -0.40622956220847
O          -0.87806504594800   -1.07398391108552   -1.33526372447240
H          -0.40626624151322   -1.95167753124542   -1.36390560309293
O          -0.73349810390703    2.50251660393877   -0.52705507652341
H          -1.26054491226510    3.28069121985945   -0.71657234558827
O           0.48492387455405    2.40856676050267    1.94047533195896
H          -0.21011742317417    1.86277519198573    2.33041106461509
H           0.23063399155266    2.52493704588379    1.00265477738123
O           0.31167919662917    0.96651810261980   -2.59729240650375
H          -0.58949510226118   -0.53214380151656   -2.09844654377706
H          -0.04719706517709    1.59423408276771   -1.94320386368920
H           1.22431274363974    0.83200366356629   -2.33400930973279
O          -2.25147016346179    0.58114313144987    0.43009707714186
H          -2.17266684302111   -0.11461854650281   -0.23609499435515
H          -1.72964693191131    0.26713043830167    1.19206888722176
H          -1.36663680382298    1.80938677186131   -0.19342756616366
N           0.61005582329027   -3.22165094389570   -0.90536084887517
H           1.44832243237098   -3.40621461622441   -1.44307809769218
H           0.14316873599250   -4.10800431368520   -0.75687340060604
H           0.90468088933407   -2.87970771645832    0.01074120415493
