    26
        -50.46788074  Gyration_radius:  2.39859587037 Dipole_moment: 5.650
 S           0.90285388635454    0.49103964445873    1.48493762116199
O           0.77567400093749    1.03296877231787    0.13654132834339
O           0.94000946591691    1.52149670062650    2.48720831788024
O          -0.19192425640055   -0.47864585092495    1.72465069030939
O           2.23208087687575   -0.32330861505148    1.54119414119568
H           2.22491008553967   -0.92600687533590    0.75950138870747
H          -1.36523376529435    0.23309560702674    1.08462766594967
O           2.20715180771186   -1.84165323428480   -0.65086011711058
H           3.11521119961063   -2.02616342584520   -0.89651879763996
O          -1.62967393059681   -0.64334328835704   -1.76781151475911
H          -2.30546090227993   -1.10100437180789   -2.26951030874511
O          -0.71857214102148    3.08051524972168    1.13262106660866
H          -0.12994161075215    2.62976261825907    1.78228496376205
H          -0.13238872650624    3.28469474148707    0.39800472484694
O           1.12922939833935   -0.05114068006713   -2.21001848157580
H           0.20613450856400   -0.25867013244456   -2.40668593192620
H           1.07164057493263    0.51456465479560   -1.40839906202113
H           1.85350966487506   -1.19813144628791   -1.33244719708281
O          -0.49032371663803   -2.33183929565517   -0.13331477312565
H          -0.40518553739506   -1.75658340282818    0.65877982944284
H           0.42154674439371   -2.52279329593763   -0.38750387285444
H          -1.20288451170973   -1.33388918787420   -1.18139708730700
N          -2.01331662985168    0.85592797921478    0.49403919638994
H          -1.92816405494781    0.50589674140405   -0.48194655596479
H          -1.59398646278086    1.82467440753589    0.61991866388230
H          -2.97289596789343    0.81853597584548    0.82210410164050
