    26
        -50.47064461  Gyration_radius:  2.48587317637 Dipole_moment: 4.183
 S           0.89129810898750    0.60692868785315    0.62763449612047
O          -0.18304933267088    0.18353481135389    1.52336565602399
O           2.12396337058938    0.97404931533285    1.48118211762382
O           1.26776038989376   -0.47985367915318   -0.28034224982090
O           0.51986325937204    1.79161351317229   -0.13445216059418
O          -2.37791557331233    2.09399619208225   -0.73930108587303
H          -1.63813052646066    2.39503438559669   -0.19713490688356
H          -2.56956431803437    1.19302996422880   -0.41993816369208
O          -0.62475348664450   -1.19893556916917   -1.98106367264693
H          -1.36874399595159   -1.19342881882705   -1.35499185668226
H           0.16859145033936   -1.11323405015128   -1.40783500171814
O          -2.24787262605010   -0.50077254220333    0.12785392808782
H          -1.46179542725677   -0.25817621103114    0.68702215851450
H          -2.83627440443768   -0.99474898979131    0.70130723675500
O           2.04222761781970   -2.58065427293836    1.11933257686768
H           1.73439922889988   -1.85287277504423    0.53499011244152
H           2.91149746886045   -2.82843319347636    0.80044859273258
O           1.64380815540425   -0.89607963686277    3.16737157736366
H           1.85407624186450   -1.67918436233065    2.61647105332335
H           2.09804739189677    0.30361202987758    2.22467923699512
H           0.72209910022304   -0.68249180564704    2.95751024557485
N          -0.52894406842823    1.35557089337804   -2.46365813978083
H           0.11617153593188    1.57422565635413   -1.64822451582992
H          -1.44446227824475    1.73645945413763   -2.11963818345730
H          -0.21905168421613    1.76534490271980   -3.33667749259729
H          -0.59324559837787    0.28546609053267   -2.48591153884799
