    26
        -50.44312267  Gyration_radius:  2.51329959121 Dipole_moment: 5.513
 S          -0.92282465518408    0.45047591250836    1.18647900545316
O           0.52097038887016    0.41996796914182    1.15566031456557
O          -1.53550161147198    1.48765837009278    1.93018502033495
O          -1.40213289354754    0.52075969561914   -0.30547398292215
O          -1.46241668825608   -0.93085503471564    1.57406055298816
H          -0.81049185596971   -1.58992862164489    1.17183413221957
H          -0.92005658464169    1.24158602500071   -0.81460943688246
O           0.98078152657424   -1.54447220996725   -1.99948901459952
H           1.26062070444492   -2.23068747959360   -2.60766679471508
O          -0.05251660973178    2.18593873928082   -1.74044270488814
H          -0.00132054248426    3.07818487066467   -1.39334481575199
O           0.43831942879229   -2.29805983778294    0.55317613727440
H           1.12384249593761   -1.83187459331254    1.04266607142433
H           0.58538558604055   -2.07256129142145   -0.39014116488695
O          -1.07711788295494   -0.20038839683510   -2.99588493722685
H          -1.69303061534840   -0.23156746342313   -2.25512465348144
H          -0.77521710508758    0.71513078708521   -3.03984082629716
H           0.20539029772655   -1.09410716387804   -2.41979686655930
O           2.03166403336670    0.83718542579765   -1.02101972628930
H           0.83987938092034    1.75751581397318   -1.56316030655731
H           1.68351520825119    0.73213201462119   -0.11638011224670
H           1.90680060185507   -0.02891400562175   -1.44061696484778
N          -0.07363814083630    0.06991210812830    4.09733484733511
H          -0.75841390457587   -0.62419329702960    3.82321196010947
H           0.49714367749734    0.25981231309698    3.28317051923560
H          -0.58963423017132    0.92134934068565    4.28521373748238
