    26
        -50.44312259  Gyration_radius:  2.51328134875 Dipole_moment: 5.513
 S          -0.90404483749213   -0.51987413656570   -1.17279723355753
O          -0.26714731798059   -1.30106789231324   -0.13820013073005
O          -2.16564800108908   -0.96262077565542   -1.63811372047044
O          -1.03289822729395    0.94126950892515   -0.61682399193671
O           0.08116408493219   -0.28073152412446   -2.32239939629685
H           0.98695519130241   -0.20444587967979   -1.88097635806128
H          -1.43391670540842    0.95151667888995    0.30528508168165
O          -1.83638841385741    1.04154336515393    1.83219331719262
H          -2.65177933946118    0.57179467976059    2.01564697978602
O           1.99021458376700    1.34040837759077    1.26018908904483
H           2.78296048086263    1.79726378510262    1.54640003702432
O           2.20804708420124   -0.28069453217691   -0.90816297925069
H           2.15312757441836    0.35755988253702   -0.16522417278789
H           2.03083707896063   -1.14517961650454   -0.52337185663968
O           0.00311319671522    3.05974735059862    0.89978207892062
H          -0.29626130865304    2.81218223530614    0.01765698405034
H          -0.69222148809186    2.76226192317251    1.49912601906593
H           1.29641193964564    2.03462218333846    1.12838200424473
O           0.19200535358826   -0.46770967945966    2.36960794843641
H           0.95992746642194    0.09673807145906    2.18653999661756
H          -1.09047734994492    0.47417322303212    2.19684794320435
H           0.05723236607226   -0.98338136570371    1.55319289099094
N          -0.46824748016819   -3.27825873790462   -2.41407453191948
H          -0.32695346158717   -2.97566806960904   -1.45844411498745
H          -1.47079521780931   -3.29505873699113   -2.55947233747173
H          -0.10521723204746   -2.54639030824580   -3.01278955602454
