    26
        -50.47103794  Gyration_radius:  2.51742384027 Dipole_moment: 3.747
 S           0.53406358962565    0.95999233763320   -0.45594968770003
O           0.51761829397938   -0.43886647881003   -1.19906424731245
O           1.10480956540825    0.68545415878367    0.86909340278182
O           1.31943170654047    1.87083599442607   -1.24220354004833
O          -0.87602202391213    1.30744586937723   -0.34464843794593
O          -1.22079803689746   -2.27528579263418   -0.07742401470104
H          -1.99252151253681   -1.77759935922818   -0.41747359207018
H          -0.47935272072978   -1.94093089182241   -0.60522679349824
O           3.59289954098599    1.29506375157592   -0.06216255949513
H           2.89992606309501    1.76649143795565   -0.56845061832378
H           3.13962976442230    1.06253432081960    0.75676540354156
O          -2.83805928865277   -0.32464848923346   -0.98918194944902
H          -3.04896937350333   -0.25855682476744   -1.92123393549698
H          -2.09096797970189    0.30080790618716   -0.83531503038206
O          -2.67041590145630    1.06099598013402    1.62959361066188
H          -3.35626354712871    0.65383283392762    1.08999904824391
H          -2.05079793146845    1.45255750638901    0.98324689849572
O           3.03638980857777   -0.74697046585596   -1.61612898402700
H           3.24068995854391   -0.43205662592051   -2.49955811990918
H           3.40266685181430   -0.05986058827051   -0.99612978055911
H           1.48499135728331   -0.61908911050188   -1.38459624748330
N          -0.73078247358377   -0.72577726579220    2.00804194520489
H          -0.50145815617729   -1.11416455439604    2.91619263800740
H           0.08173253957909   -0.14339043044773    1.61631752030386
H          -0.93779649203709   -1.48108207698651    1.29103661975225
H          -1.56064359175229   -0.07773315224048    2.05446044157100
