    26
        -50.44639638  Gyration_radius:  2.51491698042 Dipole_moment: 3.603
 S           0.45039708078051   -1.38968753865904   -1.83940556764126
O           1.36001442039452   -2.15652879093779   -1.03267405265478
O           0.41795984613560   -1.61147233464564   -3.23532654033406
O          -0.98817397257865   -1.55934965685108   -1.28615774616245
O           0.75008314621615    0.12583299052644   -1.57461150757050
H           1.33451480453718    0.23811405349313   -0.77282727272629
H          -0.98962258147415   -1.45238092674709   -0.28718140763196
O          -1.09078137548700   -1.18548518884845    1.25837009219668
H          -1.86223440265367   -1.63987892129415    1.60134219746766
O           2.29210821848062    0.41672292811170    0.49845968435542
H           3.19637303715934    0.30673897770785    0.19894485864358
O           0.70198822678847    2.45001512809784    1.52355269463698
H           0.97194673473212    2.54785480543576    2.43807936816295
H           1.31878481830625    1.82239631550928    1.11476469210834
O          -1.72068090211530    1.26687239820736    1.10050286822598
H          -1.91148687306971    1.36108995901904    0.13451660728472
H          -1.33576711437666   -0.18778554990967    1.25200641708683
H          -0.91934222914828    1.80059222561781    1.26224520147446
O           1.56587687069743   -1.79503000206490    1.59549669027684
H           1.60408984099794   -2.21566823083977    0.71518347502568
H           2.06794447719935   -0.41145731574536    1.03124545587675
H           0.61921630319320   -1.64994734921126    1.75381677928297
N          -1.99135702423113    1.27875485332743   -1.59283758377826
H          -1.01239324462250    1.18102140361064   -1.84214002556596
H          -2.38035522304375    2.03778378424976   -2.13797214744117
H          -2.44910287282762    0.42088199279470   -1.87739322051028
