    26
        -50.46439132  Gyration_radius:  2.39576213716 Dipole_moment: 3.896
 S          -1.62125595688275   -0.79346231345866   -0.02814425992345
O          -0.95161858241664   -0.24096393649027   -1.20456672976205
O          -2.16366653569762   -2.10626614617186   -0.28456631648097
O          -0.68686613935586   -0.83613904096320    1.11805034217477
O          -2.75917975800858    0.18723859097699    0.36662346696379
H          -2.30189527968087    1.04212733220727    0.57824066839713
H           0.09661257372432   -2.19479329182659    0.83168149392634
O           2.38023174667745    0.91325908619963   -0.22750054065964
H           3.26733315203381    1.20673642924432   -0.01747998265314
O          -1.45122407635556    2.45215827705036    0.75503980988948
H          -2.06309599386642    3.17661252255678    0.61242812268335
O           1.42471834468339   -1.31890422895191   -1.55061387875460
H           0.53660705907524   -0.90794782681006   -1.65035574638733
H           1.94371937601597   -0.62114034167062   -1.10974136405636
O           0.84152686005430    1.16325937050018    1.89355263163221
H           0.22887236065180    1.90289657264750    1.81269153210939
H           0.28173467610820    0.37633103687486    1.71951140631877
H           1.85203223915853    0.99321120166086    0.61154392974715
O           0.10284293053900    2.17303721287117   -1.31447061879366
H          -0.33424086782694    1.31191639592221   -1.47922450788001
H          -0.84041998934202    2.44166917242876   -0.04034401660059
H           1.01072552871304    1.93250495554045   -1.07315870028383
N           0.29140680304162   -2.94826269009154    0.10867059032915
H           0.90938890353792   -2.44484984240909   -0.62212459444975
H          -0.67237350139185   -3.04822203366459   -0.27952198949060
H           0.67808411681007   -3.81200645414864    0.47377924199618
