    26
        -50.47103787  Gyration_radius:  2.51743211899 Dipole_moment: 3.746
 S           0.99488524152055    0.62347415303382   -0.18876085626670
O           2.27703274245635    1.09143405382626   -0.63781564576690
O           1.00180277007459    0.12828696228582    1.19381740313312
O          -0.10298326654447    1.55861439563627   -0.39265796099598
O           0.59215981401109   -0.62605309206249   -1.07525969421075
O          -1.99814168072106   -1.50112781599766   -0.65444082236929
H          -1.07068607790122   -1.53062781015730   -0.93567726644263
H          -2.35642642197922   -0.71413781003220   -1.11409474521150
O          -2.30146231895437    2.13579291349291    1.02581201213678
H          -2.91566191803990    2.07235797777971    0.28683067618057
H          -1.42176983995358    2.21141155795769    0.60700591021245
O           3.66270362620302   -0.42632017455282    0.99609615924278
H           2.94488539995636   -0.43245776636664    1.64021582441566
H           3.40765103455977    0.30155147125607    0.39291798380399
O          -2.30838942802325    0.96119022017139   -1.69942142609872
H          -2.20325219154677    1.11116837414623   -2.63965305998910
H          -1.44149684607629    1.19224267119531   -1.28933426506242
O           2.74767139448955   -2.01534368052820   -0.88360065237470
H           1.40074297621635   -1.21528290720887   -1.03351383261680
H           3.30288070854450   -1.82415360083018   -1.64287715791318
H           3.18272287027197   -1.55984319178737   -0.11298941708813
N          -1.49577740987594   -0.32350723431537    1.65877403234022
H          -1.79635455237976   -0.91095998987341    0.82690901013436
H          -1.94783593375729    0.62479381246642    1.57425247477343
H          -1.71546739592287   -0.77123146466153    2.54164831126366
H          -0.43943328675459   -0.16127203484770    1.55581700477393
