    26
        -50.44327674  Gyration_radius:  2.61051833123 Dipole_moment: 5.299
 S           0.89390723776678   -0.96362543492145   -2.54693117550486
O           1.78736060695674   -1.37298515892747   -1.49175330658295
O           0.87633907885975   -1.74050964558247   -3.72749892695679
O          -0.54200800083495   -0.88399054058723   -1.91451902731004
O           1.15962303473399    0.51438012585824   -2.90885652829472
H           1.06256271805856    1.06757224219883   -2.08181427660293
H          -0.50668391109293   -1.32891950296030   -1.01246197342328
O           0.73735062472110    1.92114076211011   -0.77406279006337
H           0.86575176584986    2.85667061991035   -0.93965110479982
O          -0.25694745599598   -1.95192115747252    0.41076119902686
H           0.29330250825236   -2.71849645035105    0.23101776103301
O           0.38712692021974    0.31429953943138    3.28280969036337
H           0.96342009182210    0.12100592916164    2.52895871103059
H           0.95411861542482    0.63211099156834    3.98623828008991
O          -1.75506008845898    1.39325733200551   -0.69844454777908
H          -0.27091612593359    1.77668421372779   -0.71118106555911
H          -1.77347993239436    0.66242248783295   -1.32652036509630
H          -1.92639089831193    0.98095628469485    0.20149397493339
O           1.65942364700633   -0.10005953009162    0.82983978290765
H           1.38455241180021    0.75323838062161    0.45661745394792
H           0.35391341988215   -1.26587656588038    0.76778772786962
H           1.99834942518982   -0.59450026779838    0.05811711802264
N          -2.07623786083016    0.14188667148662    1.61757385004241
H          -1.96699792773879   -0.83975240178865    1.38854811722746
H          -2.96218988374559    0.25408970976083    2.09366944676222
H          -1.34019002112817    0.37092135601568    2.28026197468262
