    26
        -50.46726182  Gyration_radius:  2.48504025633 Dipole_moment: 4.594
 S           0.56199638528710   -0.79413283251412   -0.67834648406947
O           1.05313826417063   -1.09631250638477   -2.10429342453387
O          -0.84478641153071   -1.18514477044135   -0.57331085300361
O           1.39153013786160   -1.52751275778677    0.25087380553414
O           0.69338346075617    0.66028490836661   -0.45997036409915
O          -2.42938407810340    0.37432120998479   -2.05489869296611
H          -2.00891900481900   -0.34290820587112   -1.54054352543049
H          -2.43912698520874    1.12808779811317   -1.44169973852711
O           2.87108764753730   -0.88066511685705    2.31520613940055
H           3.77495849830743   -0.79235595770368    2.00841203295683
H           2.37324451950275   -1.28400215888852    1.56510305274764
O          -1.19661693729241   -0.76081961918832    1.95666014884987
H          -1.11530820860227   -0.96811382364190    0.98841157677995
H          -1.14329571534396   -1.60963991410722    2.39966476330204
O          -1.68710794055479    1.77027949807378    0.21669702928287
H          -0.82568543566575    1.46877367259334   -0.12635670838980
H          -1.98128184853731    1.09373053083428    0.83286460775103
O          -0.33594349505649    0.44997323514255   -3.61639904260081
H          -0.56729891734064   -0.01683940586942   -4.42222204939491
H          -1.18087571442639    0.53176243177243   -3.09173749717936
H           0.56293539112493   -0.45892569389343   -2.70801496921899
N           0.90379696247783    0.87927690249623    2.09080778657011
H           0.83545615523073    1.79753329342928    2.51632389755398
H           0.05306479473452    0.29140664780097    2.27638337670783
H           0.92520034098124    0.93025970278328    1.01771294791158
H           1.75583814452034    0.34168292175350    2.38267217407097
