    26
        -50.45002653  Gyration_radius:  2.51435357515 Dipole_moment: 6.066
 S           0.18891682574490   -0.05355467775009    2.56644614310145
O          -1.05565811528752   -0.27651717508566    1.66105081594761
O          -0.04301357485453   -0.52671927729363    3.88029208446666
O           1.34470833535058   -0.57486647530792    1.87495248279817
O           0.28091397764352    1.49214442519198    2.57991827808119
H           0.48173101995319    1.74043956634527    1.63806964449303
H           1.81298761517915   -1.47366841449447    0.61987805711582
O           1.94779186658570   -2.02409567698580   -0.18803856225188
H           2.63365596707262   -2.65653584846691    0.02970788273962
O          -1.00045662889027   -0.57468837281996   -2.38013154354542
H          -1.00401079102215   -1.02479110510912   -3.22568527326529
O           0.59150679426859    2.09078323277855    0.06995043986743
H          -0.37975285411702    1.92571304836511   -0.19919155519956
H           0.76257366182271    3.02572862970625   -0.05782372536051
O           1.44672331346524    0.18371697319775   -1.78352699403543
H          -0.07202632668242   -0.24133465788262   -2.24512978995439
H           1.32055319227614    0.86193452231403   -1.10032856420825
H           1.78378034342669   -0.59925988697117   -1.31909910281715
O          -0.78574990329974   -2.05476432780260   -0.11950869556551
H          -0.94008373250730   -1.04632305296867    0.98908843003234
H          -1.00866673429813   -1.56731588924654   -0.94134024813093
H           0.17032930032971   -2.23516641856530   -0.17968683488149
N          -1.88415018505653    1.53057592516422   -0.51404013979437
H          -2.62157601250608    2.20264241272505   -0.67971298325309
H          -2.11212311875891    0.99585801195431    0.31805938044075
H          -1.85890422583784    0.88006451900929   -1.29416960681450
