    26
        -50.45002634  Gyration_radius:  2.51506075659 Dipole_moment: 6.075
 S          -0.55713868128495   -2.11057153126108    1.36901007532499
O          -1.22822419761684   -1.56070091677554    0.07839176422159
O          -1.37809448201377   -3.07484707957682    2.00147547277129
O           0.69984847424609   -2.80188190119187    0.78608120775279
O          -0.13189622796956   -0.98458432350348    2.16707869431010
H          -0.24957963129675    0.61674743125630    2.32362279179205
H           1.23624883395863   -2.06222593142574    0.39335005438807
O          -0.40041356357587    1.59127778239314    2.28511974145151
H          -0.54382433561721    1.87637500316788    3.18847033248955
O          -0.44918193839632    2.02802591877603   -1.63884564690620
H          -0.59940408562214    2.95228306645394   -1.84091773525164
O           1.95236163391147   -0.86171950428572   -0.40674369443649
H           2.81028375791891   -1.13716722650377   -0.73504505320626
H           1.32689591146129   -0.81027893466612   -1.21261566076806
O           1.41379688282946    1.80922495332091    0.20513947455423
H           0.88628391818987    1.85891036996621    1.01863224134698
H           1.70347539490503    0.88523193279686    0.13450964738600
H           0.31560550220487    2.00194900122176   -1.00174474828379
O          -2.02464298140178    0.83755648136831    0.21733852724375
H          -1.59809426467832    1.21966075673196    1.00603132375773
H          -1.57428522810706    1.25552456687157   -0.54776675615502
H          -1.59772382560573   -0.60679543225364    0.18400135696856
N           0.22584345629616   -0.75236582767362   -2.35357678195019
H           0.36284032286351   -1.11135074720087   -3.28911394088611
H          -0.07635628779849    0.21539824308046   -2.42025483867968
H          -0.52462434780221   -1.27367614108672   -1.91162785923537
