    26
        -50.45002653  Gyration_radius:  2.51431260244 Dipole_moment: 6.066
 S           1.63833216460956    0.61454607287548    1.88753958324926
O           1.44625373075697   -0.73864737286927    1.14563586338397
O           2.86953895112086    0.64492877036971    2.58543895488465
O           1.39088652410950    1.68072014743954    0.94529172007058
O           0.46799922004721    0.57351917788295    2.90067656383107
H          -0.35214157663860    0.59365703114789    2.33848696662357
H           1.18901355562389    2.01096132599414   -0.62076379883914
O          -0.90699369625785   -1.32663168226712   -2.10081320548982
H          -1.10506210033184   -1.43093343368228   -3.03218568945586
O           1.06666196642746    2.05734260958411   -1.59889624107081
H           1.56243533174762    2.82166052434349   -1.89525814044106
O          -1.63113979188977    0.41199633231111    1.37684396756614
H          -1.50984321150515   -0.57246254295737    1.13352521355895
H          -2.44550048117374    0.47817510796626    1.87899017742654
O           1.60620563408604   -0.61428899819579   -1.37715255365695
H           0.75572572276912   -1.01121143685504   -1.66321574626372
H           1.53826733509095    0.33065585602522   -1.60677208606855
H           1.57853712202297   -0.66973487555866    0.12817962515672
O          -1.52188980438081    1.11072691492148   -1.32565318204818
H          -1.23264090008606   -0.42095134381732   -1.84579396045448
H          -1.57616518493753    1.04110620087185   -0.35876704678468
H          -0.69594056455992    1.58626958985022   -1.51010360439390
N          -1.15226892412499   -2.06831813684356    0.74256936714526
H          -1.16286805541530   -2.11621433770316   -0.27231436961914
H          -1.63570824536106   -2.87822483620175    1.10760271882712
H          -0.18169472175225   -2.10864665463410    1.03690890285690
