    26
        -50.47356252  Gyration_radius:  2.4355699779 Dipole_moment: 2.303
 S           0.06498616513078    1.68027750859904   -1.39246598388941
O           1.29866509165162    1.41156266898672   -2.10386224801500
O          -0.84964634349778    0.54273481367623   -1.44889588593771
O           0.25577796783137    2.15926130685131   -0.04390452039684
O          -0.64470645780395    2.85544971707115   -2.18701880653848
H          -0.44528656966074    2.61239387728889   -3.08463252924192
H          -0.37630153486651    1.63194301788289    1.30643407490765
O           2.32822211609917   -0.21082561319822   -0.37691500030533
H           3.26374475175971   -0.00970224121076   -0.31268797976812
O          -0.74288930582100    1.25955148617902    2.15196203466291
H          -0.78295787960818    1.99444936486673    2.76530145747836
O           0.39502311547993   -1.79375126483541   -1.63155957978458
H          -0.10102184281957   -0.95518373040562   -1.75137910059082
H           1.28124683327811   -1.50732595855457   -1.36789430437532
O           1.06151044429885   -0.79441047182086    1.99782689003260
H           1.58373197403383   -0.52795502976429    1.21810104438541
H           0.49242478008542   -0.03034557885424    2.20630590088552
H           0.01091488715888   -1.80408185741643    1.34661191915230
O          -2.41375204590243   -0.23053366989717    0.55864998710234
H           1.95325987715722    0.45388587133477   -1.00748900417456
H          -2.05971886554173    0.33289152403943    1.26695822345357
H          -1.99311545630579    0.11248224772828   -0.25871713765401
N          -0.72482847755193   -2.23591932962887    0.71193234950999
H          -1.00848384342961   -3.15937849554728    1.01525780705675
H          -0.30768820509223   -2.24063466356417   -0.26539593468317
H          -1.53911121606474   -1.54683548981793    0.68747632672755
