    26
        -50.46012845  Gyration_radius:  2.52041153666 Dipole_moment: 4.823
 S           0.39853807252025    0.45770003022444    2.03452258143499
O           1.81946057185305    0.34409657764285    1.83455930788366
O          -0.30390859352451    1.29683077694956    1.08158083845359
O          -0.25238391158715   -0.85132595875358    2.16794812928438
O           0.19272741533204    1.17934587057438    3.44036252877240
H           0.87217668823731    0.83047617527613    4.01127732920698
H           0.52697511887725   -1.46025355286215    0.80717995650645
O           0.91834076436756   -1.74291280225539   -0.04352735176486
H           1.80837395212082   -2.03205981432878    0.16859298660932
O          -0.90646608944803    0.41475303283040   -2.94794126113437
H          -0.80077448783389    0.40331618577492   -3.89981565699245
O           1.98491051645232    2.23772585183383   -0.07452316141025
H           2.25107131360647    1.60587443134505    0.61368317643620
H           1.05296627847920    2.39516121358278    0.12224746204608
O           1.48733785217186    0.31305865649017   -1.89119926932458
H           0.01269900012476    0.49170484274449   -2.57448535585683
H           1.75894443728361    1.09517228782145   -1.36422843854190
H           1.36652065147780   -0.40209008441983   -1.24810519338405
O          -1.46435271497092   -1.73241965120966   -1.53571158877501
H          -2.01138824422907   -0.96251189788094   -0.36692523198784
H          -1.31368440151075   -0.98843589734315   -2.17398053331380
H          -0.58596624488705   -1.97492874799227   -1.20553968369469
N          -2.21285918058677   -0.37480261499132    0.53149325599934
H          -1.72775694345719   -0.83852780827952    1.33121379875346
H          -3.20205658809690   -0.22398493746136    0.69403460496830
H          -1.66944524276471    0.51903785468040    0.48728676982634
