    26
        -50.46012851  Gyration_radius:  2.52035828142 Dipole_moment: 4.819
 S          -1.63752164280275    1.33753994772268    0.19195711225379
O          -1.57607584282911    1.69274606537650   -1.20160411739431
O          -1.64572568931315   -0.08525229626002    0.47698612861611
O          -0.61914305790910    2.03136130880762    0.98977246791417
O          -3.03788969835585    1.86897336009359    0.73604250990664
H          -3.18127030988788    2.70680342586248    0.30387377155349
H           0.60442929816900    1.63915411397731   -0.09622952538135
O           1.55893299240892   -2.69222646396955   -0.08201643062277
H           2.13403681015324   -3.35233861802301   -0.47043180177735
O           1.30183233967164    1.30541979054055   -0.69536338867384
H           1.30542473749306    1.90710365846987   -1.44283874663579
O          -1.92738550896469   -0.80739374717083   -2.14190217160766
H          -2.07246193966616   -1.04158721714317   -1.21662271509980
H          -1.87527741704972    0.16236320862313   -2.11750950097393
O           2.45221934753466   -0.52231919695196    1.10521085046032
H           2.23788008766989   -1.39658284061038    0.68884001555791
H           2.35006999414576    0.13459314877457    0.39994353008554
H           1.19370682173315   -0.29805589205076    1.89540561521443
O           0.74383052378831   -1.12553407685617   -2.01533000076750
H           1.17426447278936   -2.18468344093692   -0.84667534553997
H          -0.22071256981988   -1.13046542430350   -2.19637847183856
H           0.92943315457703   -0.25619392096890   -1.62875621338506
N           0.20671004343998   -0.05673915021115    2.29605975276399
H          -0.52774908921141   -0.46591364323691    1.67209031642519
H           0.03497925145886    0.95959298601777    2.12989804772418
H           0.09346292078424   -0.33036509567205    3.26557831131869
