    26
        -50.45344796  Gyration_radius:  2.41516693323 Dipole_moment: 1.806
 S           1.09832746051487   -0.31130593309952   -1.35642986607912
O           2.50188692923158   -0.71069663916749   -0.87563471859652
O           1.08360818355778   -0.13309198979363   -2.76344669932388
O           0.21038315051869   -1.54225528865324   -1.02233684139230
O           0.64856638738590    0.80937661442206   -0.56789070959070
H           0.62477237862431    1.42858662036108    0.93557179215579
H           0.19953474360055   -1.73070858973840   -0.03060094177777
O           0.09002120587975   -2.00349732785058    1.50033206307128
H          -0.34716573831100   -2.83822152778284    1.67731742754659
O           0.67853207345565    1.63956181058728    1.89501521925237
H           0.86801493007146    2.57630169992820    1.96162195860830
O          -2.33078589420396   -0.20320592675143   -0.60031428889506
H          -1.84705584596229   -0.96963480302763   -0.91987806648373
H          -2.10467009248939    0.51055225382841   -1.24174519737981
O           2.37026904216743   -0.51853643400356    1.66826319102279
H           2.54423829742167   -0.61468057468815    0.13701414173919
H           1.92063554430640    0.31399182510835    1.90631341087760
H           1.71956261836547   -1.21567631882597    1.84681659565287
O          -1.52746283464400   -0.09678214262044    1.94608323847222
H          -0.93654629811216    0.66265273608784    2.05565629020952
H          -1.92813068816474   -0.02206101634042    1.04737086796959
H          -0.57702712116549   -1.26851341718105    1.75977852168008
N          -1.40534290581400    1.42727323451180   -2.56085843363196
H          -1.90001887311955    1.62437226555139   -3.42270281141363
H          -0.58042656568298    0.87906688151702   -2.78935529877610
H          -1.07372008745662    2.30713199760566   -2.18596085492071
