    26
        -50.45344794  Gyration_radius:  2.4151587814 Dipole_moment: 1.806
 S          -0.93776640983042   -1.02379426806398    1.10280021990402
O          -2.10734292736951   -1.71515101342421    0.38532697818483
O          -1.00390351672496   -1.25164251575105    2.50114342033680
O           0.32821946366704   -1.74467412604211    0.56157214830884
O          -0.89766567780922    0.35558174407384    0.68358937303929
H          -1.07234510707586    1.34124912217014   -0.59789256241363
H           0.41643417622043   -1.63405360126356   -0.43800145644812
O           0.63348137191846   -1.41593344671899   -1.96625467444364
H           1.33647911093609   -1.97367235295238   -2.30382234810669
O          -1.18411203784457    1.78161296744773   -1.47053882487755
H          -1.68741105043816    2.58158698350477   -1.31382007808760
O           2.24780433718742    0.42260422238450    0.77742139098146
H           2.05799099236892   -0.51781291941198    0.83398788581249
H           1.77868302700624    0.81135809957316    1.55251774082844
O          -2.01916181763284   -0.78748469019290   -1.99315607517377
H          -2.16785090227162   -1.35971367405966   -0.56677366649441
H          -1.88542148214743    0.17835052336504   -1.95819068771974
H          -1.16378641045254   -1.14971818085820   -2.27324909262108
O           1.48946117416019    0.96328026985139   -1.72726958152679
H           1.82769497847298    0.91252675337416   -0.80163600557329
H           1.00533212235653   -0.45986626948101   -1.95357993267901
H           0.67203622443988    1.48201432525758   -1.70100252988267
N           0.78678774214948    1.03658691442951    2.97901866350183
H           0.20267168735277    0.20478539872708    2.96784076302935
H           0.17328265888853    1.82355478495271    2.80887778951306
H           1.17040829247500    1.13842490906957    3.91109117257109
