    26
        -50.46300181  Gyration_radius:  2.47148322331 Dipole_moment: 4.017
 S           2.09259345840829    0.11772995119941    0.06942230608098
O           2.61777228256794    1.14625718460847   -0.78506264197494
O           3.04599291393357   -0.69383012217641    0.77749693650414
O           1.27581906213438    0.88917805457224    1.24139131037799
O           1.05455650292554   -0.67440424530565   -0.59560418166901
H           1.81783693754718   -1.51527792745606    1.65559236235311
H           1.96900815560210    1.16017617090967    1.83530710073485
O           1.10816229824844   -1.95956137459115    2.15818879585474
H           1.47290088907598   -2.81057895159996    2.40780987871898
O           0.14010602476484    2.14484307143972   -1.20069915585960
H           1.07275491489748    1.88692363528405   -1.07564376990175
O          -2.78895754183190   -1.13944522200933   -1.13386495448335
H          -3.45450467975279   -0.45234865438048   -1.20120303233213
H          -2.06961961048275   -0.87720486718753   -1.74494892856769
O          -0.63151793354680   -0.27321115952847   -2.56523379477227
H          -0.21248340175309    1.54981207508545   -1.87426176881516
H          -0.31829438667975   -0.69090371838356   -3.36890907806596
H           0.05280919108868   -0.45300822569341   -1.87913809332896
O          -1.34514057202896    1.91173753023598    1.00195616286317
H          -1.24206371761674    0.29071933579861    1.10112823408007
H          -0.76939213264104    2.27133616896243    1.67927060697169
H          -0.85621297565121    2.06594405028116    0.15507846678377
N          -1.08233053464269   -0.73692113269104    0.91413029047737
H          -1.86241725641498   -1.10397161434366    0.33302619000663
H          -0.88605372720881   -1.27022988046129    1.75926568751519
H          -0.20132412089991   -0.78376013253330    0.33550507042213
