    26
        -50.47460342  Gyration_radius:  2.4196657654 Dipole_moment: 1.176
 S          -0.56519507257121   -0.72129909711589   -1.76951633938403
O          -1.62531051840457   -0.93110486302077   -0.78522071263026
O          -0.17146441877748    0.66259996175783   -1.87500119222566
O           0.55162768036968   -1.62665203222007   -1.55132019735529
O          -1.18187475326037   -1.12184909723132   -3.17098601780646
H          -1.22055526146986   -2.06960666088841   -3.10134710362106
H           1.85140643758186   -0.63953010483598   -1.30886902379157
O          -2.08987129153904    0.72816937592593    1.18539448902114
H          -3.02246375698793    0.66606576749201    1.39659117883085
O           2.44179993236038    0.13741976411799   -1.18220468076062
H           2.08167254662421    0.78655692282376   -1.79565270405188
O           0.09127133308851   -0.38214452135418    2.48468299250482
H          -0.75366967182034    0.04597577086167    2.26460032670291
H           0.04050049294835   -1.26190853959722    2.04457643182505
O          -0.26228895680837   -2.49496838329996    0.89910608412058
H          -1.94428939876530    0.12386368970054    0.41638704364507
H          -0.92207335505826   -2.03297488301362    0.34869610968393
H           0.46922270632922   -2.63966244533070    0.28936469192648
O          -0.37511128598124    2.52432428191195    0.01923763247659
H           0.89845376860720    1.89253570408592    0.72775722909365
H          -0.34944743603908    1.99403509656218   -0.80360546835482
H          -1.11434451178798    2.14511950713875    0.52316506510245
N           1.63990872446509    1.22776299644672    1.10918273436112
H           2.34885842658911    1.72228317853743    1.63845630429049
H           2.06275318457495    0.73980429279608    0.27162911444463
H           1.12048445573337    0.52518432772800    1.72489600192428
