    26
        -50.46656004  Gyration_radius:  2.45845304257 Dipole_moment: 4.211
 S           1.48718677703666    0.55455712252208    1.41936217228625
O           2.33918497603816   -0.23755545266348    0.55460360661145
O           0.49006315271664    1.32111628983524    0.68773317128689
O           0.91123320832630   -0.21972503498086    2.50231692001172
O           2.42651446776842    1.63888174551306    2.09548416891443
H           3.04761366696777    1.09504064762362    2.56819137082890
H          -0.34306478232387   -1.12881473176830    2.14951432828429
O          -1.11425164633621   -1.66583046638556    1.82310590429355
H          -1.32838768352675   -2.27750073635793    2.52918532614601
O           1.71610580290887    1.24116859556476   -1.65321053521841
H           1.21245184660861    1.47699261515399   -0.84973649596604
O          -0.02779767888071   -0.54309090456126   -2.50469784058117
H           0.16479657600084   -1.22082795351865   -1.80664181594363
H           0.67184816361890    0.14643344482116   -2.36266192245213
O          -2.04693104595623    0.68325433334140    0.84631917449632
H          -2.15972073230185    0.62687266496337   -0.67003397228305
H          -1.95725302412066   -0.21060709641585    1.22405216256978
H          -1.13844758309942    1.05646902836801    0.90977651272663
O           0.54794152003787   -1.99208467748193   -0.39183876271655
H           1.28700948175809   -1.45961670026409   -0.03950600758666
H          -0.11227743286107   -2.03696294444758    0.31568772418188
H           2.41491647289544    0.67501240922895   -1.30262543621197
N          -2.15629198720222    0.62838462236913   -1.75282253588175
H          -1.22533720802690    0.09138457237146   -2.10252551558933
H          -2.12117014011284    1.58921066123703   -2.07792989961134
H          -2.98593515794281    0.16783795594603   -2.11110182258496
