    26
        -50.45039947  Gyration_radius:  2.51266897099 Dipole_moment: 7.274
 S          -2.06569967188863   -0.40476894880840    0.97239874739246
O          -2.29514698046606   -0.71579367431922   -0.46043381608598
O          -2.30428407934014   -1.50283338013429    1.84752928948630
O          -0.49891176407447   -0.07062203234099    1.03069539220218
O          -2.65861161509565    0.88052150966391    1.31652985586473
H          -2.15948831726817    1.72159912101221    0.11390595865584
H          -0.01081697990004   -0.92328058674058    0.93045889745460
O           0.94476886227532   -2.25900361526949    0.72010268611146
H           0.66711753969861   -2.84304322630233    1.42832876964288
O           0.70445820750459    1.32609700324492   -1.63497258176618
H           1.11003922555312    1.52779705806284   -2.47924580556129
O           1.80907375339756    1.40022000531246    0.92719763747162
H           0.97416119007469    1.11392471687820    1.32254717487382
H           1.60237069814028    1.48109440876748   -0.01726487540263
O           3.11809392886017   -0.89451733020691    1.33676480745236
H           1.81068988605392   -1.85921792767354    0.98783903987762
H           3.90319454038627   -0.89149833795907    0.78768139755566
H           2.72220827718666    0.00760834171181    1.26431389138479
O           0.00085624273858   -1.18726600712924   -1.70633080034106
H          -0.90905456630116   -1.14549883781722   -1.33862304801745
H           0.49424090008573    0.34585990600196   -1.65648878366384
H           0.48615834186693   -1.74749974312347   -1.08714994930806
N          -1.91193022452105    1.73095959353218   -0.93299666481113
H          -0.89642330222434    1.83704852524235   -1.11880412327556
H          -2.47679305921458    2.37568497141926   -1.47440160155904
H          -2.16027103352766    0.69642847697910   -1.07958149560727
