    26
        -50.46564935  Gyration_radius:  2.44834483522 Dipole_moment: 6.109
 S          -0.58441558913539    0.05086936247341    0.97931164759350
O          -0.96798295188614   -0.37648657983753    2.32499788386804
O           0.95022376283280   -0.21031637911495    0.93811456164072
O          -1.18244252803864   -0.80456126683111   -0.04518869120937
O          -0.83057261268496    1.45426571130526    0.72477011391143
O           0.94086691747581    3.04946840956771   -0.60851067011477
H           0.31269293545675    3.34780513737333   -1.27413799465245
H           0.39424006507762    2.62494162973669    0.07518460159918
O          -0.54163955308253    0.10763983777964   -2.47820281975079
H          -0.97899022142706    0.97587509506031   -2.47818622793220
H          -0.89907636955605   -0.34072805415523   -1.68846934845796
O           0.33564926273501   -2.89759134133257   -0.04019224431232
H          -0.34836356114197   -2.18451189770123   -0.13411400617478
H           1.06018881522056   -2.62994578948049   -0.61151035297799
O          -1.78511830575508    2.39720590461914   -1.59314618253190
H          -2.74012946100514    2.46983946874784   -1.58516712676506
H          -1.52846866630231    2.06252791335189   -0.70834475318597
O           1.75353571010873    0.59631747378680   -1.28817146769284
H           0.99214861455015    0.37755899337471   -1.88754190876049
H           1.68954888313971    1.56687679258271   -1.14115644630177
H           1.32992091911710    0.11832405253746    0.02276946019774
N           0.54247602529751   -2.38266991894121    2.52618515879877
H           1.46328537547423   -2.03397426102621    2.77657145406046
H           0.54616987108729   -2.71164092969894    1.50894378871680
H           0.23673921557424   -3.11376076470081    3.16078071037182
H          -0.16048653312992   -1.51332860947411    2.52441086006140
