    26
        -50.44551805  Gyration_radius:  2.51920351821 Dipole_moment: 3.367
 S           0.97593447250455    1.49537916637689   -1.06760823482337
O          -0.44454690712082    1.42956876485094   -1.23737917258708
O           1.72325278065680    2.43097643209490   -1.81997816468784
O           1.29406939352628    1.71651951448205    0.44263168508568
O           1.56383404988009    0.07041669133501   -1.33480320841749
H           0.88205848980306   -0.64397974398319   -1.11404487240015
H           0.60871456669634    1.24277518485686    0.99526423670715
O          -0.04399350965062   -1.82822714302508   -0.75314907681034
H          -0.30563855878524   -2.29783427257232   -1.54630414774053
O          -0.26773231737351    0.34626094434452    1.97748052704334
H          -0.24192776932633    0.66791352007390    2.88034415129923
O           3.40736713911023   -0.22160092944531    0.70077493936246
H           3.40435343948150    0.67202415603781    1.05317312807902
H           3.02960014208902   -0.15164766347359   -0.18832952291725
O           1.33504086856724   -1.65881506304034    1.69978883240687
H           0.98290057289420   -2.07311202514819    0.90090818906666
H           2.18770431859755   -1.25070811093390    1.44009016158714
H           0.31160938556456   -0.47942610649205    1.95277539982465
O          -2.17366499511077   -1.01229443212511    0.41366913720959
H          -1.76358882805583   -0.42695281495097    1.06515504824539
H          -2.65474677965350   -0.41773647050779   -0.21589150151853
H          -0.90714083162688   -1.52559559458441   -0.30524075853518
N          -3.22432647251809    0.76132608998701   -1.31568711245001
H          -3.82852498420728    1.49319536979456   -0.96365673778265
H          -3.55820716655144    0.50386717972387   -2.23582709281575
H          -2.29240049938317    1.15770735630859   -1.42415583242888
