    26
        -50.44551804  Gyration_radius:  2.51914836501 Dipole_moment: 3.366
 S          -1.57953049243257    0.34580642686571   -1.30894565691743
O          -1.93674292728869    0.12219543684946    0.05978329847665
O          -2.59878601200283    0.50828533545004   -2.27571605200975
O          -0.62968576728445    1.57976853117022   -1.38749726876368
O          -0.65229593599598   -0.82785453036690   -1.76712975697197
H          -0.14031676003028   -1.20589241136162   -0.98038416808912
H          -0.05763332457929    1.60611453966485   -0.56803636770434
O           0.74561119556890   -1.82760000803938    0.12331783082044
H           0.47307416964621   -2.72954395143927    0.29739066039831
O           1.06619850398504    1.62821990972807    0.56057876514570
H           1.46869797007429    2.49349521438765    0.65319373222332
O           1.32504963158728    0.47402501360265   -3.18903173294663
H           0.94462583109688    1.35518220828481   -3.22787305056082
H           0.58802260980512   -0.11843399526821   -2.97966488477965
O           2.59530492815647    0.07670517763647   -0.82544872039188
H           1.74142967908554    1.04951569829426    0.08396917769689
H           2.26261249755721   -0.79387756873944   -0.57000766867595
H           2.30460040452480    0.21708436532986   -1.75108127962040
O           0.55118257796349   -0.51296019222126    2.31340511521807
H          -0.39341416780934   -0.55488750509645    2.60864582670419
H           0.66905420286864   -1.33226346739778    1.00989874583938
H           0.67465718744820    0.37728737133943    1.95637020365358
N          -2.08705627555080   -0.51752134612725    2.84340657089346
H          -2.60864178507214   -1.36174480482299    3.04247510947011
H          -2.24964858046044   -0.27585354337701    1.86745258275603
H          -2.47636937086400    0.22474809566083    3.41092897814266
