    26
        -50.45807537  Gyration_radius:  2.42114339944 Dipole_moment: 7.657
 S           1.67883689753099   -0.36563460954593   -1.37700556848129
O           1.12343448579643   -1.64836232306664   -0.96986547663166
O           2.80408100967005   -0.41585148071154   -2.24378193592569
O           0.49845117374086    0.42469956028423   -2.09838178938014
O           1.92527861010939    0.48562853370851   -0.17371060213165
H           1.43046885815348    0.17340732500036    1.33620380492864
H          -0.20244664071556   -0.26021167145158   -2.27513048045811
O          -2.26929877569976   -0.78583160931497    0.33996475695741
H          -3.09072109988181   -1.17825586086748    0.63839240644091
O           1.04130787420329    0.09130113723846    2.24564308509576
H           1.77329830053834    0.17559994187989    2.85740614597661
O          -1.23822796634017   -1.46887060789298   -2.15083706038666
H          -1.77155180874010   -1.22185157863489   -1.37410915732050
H          -0.48355253776863   -1.97243372852701   -1.79914638231057
O          -1.23701120142514    1.42984464515983    1.49656569428219
H          -0.52140088735967    0.98721440665513    1.98804416614554
H          -0.42088277698299    2.13749200592771    0.39298755586020
H          -1.73356643322252    0.70345310542875    1.06284588655909
O          -0.24420249692029   -2.11765708748518    1.23732851601546
H           0.32301727551521   -2.09264325927913    0.43479556447196
H           0.18827002325018   -1.50641138670005    1.85373574477884
H          -1.53036367233056   -1.35892646278489    0.71589575740974
N           0.29989981190098    2.42917674646816   -0.35461833555296
H           1.09357122056403    1.67581069860955   -0.28388772980617
H           0.64850936859658    3.37025734637081   -0.20829897502553
H          -0.08519858218159    2.30905622353068   -1.29103561151153
