    26
        -50.46008909  Gyration_radius:  2.40508791406 Dipole_moment: 5.719
 S          -0.68024474740329   -0.84397639822937   -1.24404126485786
O          -0.40825200795513   -0.15169462099548   -2.47594017811118
O           0.68655662311950   -1.06253004654574   -0.48817912198598
O          -1.51976370487841   -0.09087458611998   -0.31782802224430
O          -1.22562696526633   -2.19835016976241   -1.39130750215273
O          -0.16248732755818   -0.88720882267812    2.03097069347503
H          -0.49886236490036    0.01663089502873    2.03897242709261
H           0.31048579200503   -0.97226419822747    1.17556028854357
O           2.15141209610276    1.24166360008162    1.63010591664694
H           1.26352599084851    1.60315594550024    1.41286406491987
H           2.00590492744549    0.48023605690204    2.19540513678583
O          -0.26721461632100    1.96616297366942    0.70752139538342
H          -0.81424370897936    1.24090017457263    0.33019612536940
H          -0.01647958213264    2.48485219087183   -0.06665532537686
O           0.52055572692992    2.24377227160680   -1.99781849260570
H           0.58669315923537    2.72310872222129   -2.82515566852719
H           0.09208307182480    1.38034368613463   -2.21993539125382
O           2.46470845636866    0.64961550846293   -0.95885920633761
H           1.43850058881950   -0.40682635310413   -0.77627276971723
H           1.94407752631125    1.36077841781224   -1.38023587055990
H           2.58466647406527    0.92187438445625   -0.02114415032101
N          -2.11078946906500   -2.36654928443818    0.95972996581632
H          -2.27324700704214   -3.29896106167182    1.32704146464125
H          -1.73132053309386   -2.38328448349464   -0.10309871797698
H          -2.96425046173334   -1.81443094516894    0.94592441968588
H          -1.37638794674861   -1.83614383689181    1.51217979367761
