    26
        -50.44530619  Gyration_radius:  2.42534124382 Dipole_moment: 3.790
 S          -1.17138146754059    0.49357130505001    1.49594385946469
O          -1.52431231999226    1.68127103265488    0.76911598346589
O          -2.19600420973572   -0.46395846649089    1.72885525634739
O           0.02198274247810   -0.18118814150424    0.76394418375519
O          -0.49393144654284    0.90868847667121    2.82530622960466
H           0.22426439163871    1.52386268616435    2.50472252774509
H          -0.09164424006488   -1.13381364905615    0.47799926777803
O           0.19675573054604   -2.62639180682989   -0.02739461747359
H           0.35077032214886   -3.21793756572719    0.71200671483223
O           1.82028352773667    1.12318024493180   -0.95473079011065
H           2.31086826427288    1.61373848183590   -1.61708222221681
O           1.03896114696006    2.42032560685503    1.38478515373658
H           0.20904384283194    2.73988711462367    1.00879370144894
H           1.44740849420145    1.89038622219496    0.67224444992899
O           2.51586391567411   -1.46620494653551   -0.55164082732847
H           3.04712703087264   -1.40284859328231    0.24403520874945
H           1.08492926965658   -2.33926082983793   -0.35912426700267
H           2.22847965841786   -0.54741203307949   -0.74543981350655
O          -0.66732785540150    1.17718802305032   -1.74929128881820
H          -1.11128005210536    0.30210884245867   -1.79805835210003
H          -1.06634997617471    1.57784797310354   -0.96075777048720
H           0.87472798014333    1.09013348708575   -1.28332785858185
N          -2.12169911968633   -1.08012932956178   -1.24809027881722
H          -1.55231916911255   -1.91669875468392   -1.18575521430599
H          -2.94039860864117   -1.30612554923124   -1.79969834719703
H          -2.43481786258144   -0.86021982087099   -0.30736087886329
