    26
        -50.45488628  Gyration_radius:  2.44210506425 Dipole_moment: 6.276
 S          -1.74265400415204   -1.41990579329925    0.28906215926703
O          -1.83480815582716   -0.05270918352416    0.84982267354866
O          -2.89987545209864   -2.21734889218447    0.48643070382995
O          -1.32503465452419   -1.31893566151869   -1.13060518221950
O          -0.53871908546585   -2.11293129634653    1.02577393709825
H           0.13855898468742   -1.45720258998976    1.30696389409872
H          -1.40052395826706    0.13862716862954   -1.60442816249896
O           0.84459970486036    2.22016899761452   -0.79343816108261
H           1.40042634603043    2.90640487155843   -1.16380378942228
O           1.35371615986159   -0.49352993168259    1.97475423951442
H           1.52036220000859   -0.78678681633864    2.87152453110353
O           1.16148967476062   -2.11558413580777   -1.46485143021197
H           0.20879990700795   -1.88112992547919   -1.42582055015038
H           1.26614040801818   -2.84899379742326   -0.85547290657053
O          -0.05974364441321    1.68154549631034    1.83902254478436
H          -0.83602783562070    1.12918558687226    1.61856694913618
H           0.88197505450942    0.38558612415366    2.03968306625602
H           0.23923264911023    2.07243014518263    1.00370681757812
O           2.31091082660066    0.11354693054190   -0.54924932187504
H           1.42821629386057    1.39849754675497   -0.73395385613159
H           2.24317606138976   -0.11912123025162    0.38806740385275
H           1.97135269686866   -0.67827699271457   -1.02477103537527
N          -1.55678427473161    1.16978781114271   -1.35158459874163
H          -0.64891526438709    1.68246686837159   -1.31684409975132
H          -1.87204980389874    0.97208493957953   -0.35556531822208
H          -2.25382082418835    1.63212374985767   -1.92299046781210
