    26
        -50.45488637  Gyration_radius:  2.44195965345 Dipole_moment: 6.278
 S          -0.11704719204363    0.79821811383530    2.11744214224880
O           0.95112004027385    1.30008352123535    1.22375712059573
O          -0.13197979216606    1.38836681016527    3.40800113393847
O          -1.41330243865722    0.89735814758866    1.40306906164342
O           0.14407344206050   -0.74319691916107    2.28679517063312
H           0.59038104769435   -1.12318215803437    1.49685105319366
H          -1.25059025681192    1.72327503584194    0.12254451469487
O           1.45308358729099   -1.94377723091274    0.29902477558842
H           2.13370617611382   -2.47275881251580    0.71723866878435
O           0.07473021131974    0.45947721276732   -2.46041278940448
H          -0.05044291295361    0.38674445732918   -3.40703892068587
O          -2.30526442370211   -1.47531090449155    0.69229331050116
H          -2.07322745423690   -0.57076263638117    0.99557668207902
H          -2.05413459574788   -2.05558487036677    1.41375186722740
O           2.35305943814080    0.23774727813818   -0.78653728096906
H           1.91497199119438   -1.18194249282830   -0.15462475079686
H           1.71739786234877    0.39202301042666   -1.50204023645606
H           2.01485692871534    0.72881810735724   -0.01134885539495
O          -0.70455681067499   -1.76904442287854   -1.42423141772659
H          -0.26295564388049   -0.40942792685752   -2.07269781820608
H           0.06263815382991   -2.08328939111685   -0.92427826095905
H          -1.41728121203197   -1.67991859723219   -0.75151176585254
N          -0.59192090962745    2.22657688968893   -0.55986582946470
H           0.26971066979861    2.12462035238719    0.05369352869015
H          -0.85376693323139    3.18625819992817   -0.75137861512967
H          -0.45325895301681    1.65862924608561   -1.42407249877397
