    26
        -50.45807540  Gyration_radius:  2.42104011712 Dipole_moment: 7.656
 S           0.33314081808271    1.15475531727277    1.84465961944233
O           1.33023458465011    1.55416394945667    0.86194627592651
O           0.42351427732584    1.77753683703746    3.11900839375629
O          -1.08669380138159    1.48453163026845    1.20158022545656
O           0.28511172320416   -0.33572352800904    1.94203138567564
H           1.01887005823900   -1.38562860642381    0.95165444002246
H          -0.88900086099587    2.07778283788259    0.42653831142599
O           1.34050752196424   -2.06240793216680    0.30069835715446
H           1.83409059230599   -2.70724894461824    0.80840264544251
O          -0.10464151019740    0.39467752030008   -2.38897209975972
H           0.02340522285746    0.44602440537259   -3.33700013544858
O          -0.26590444252272    2.73193620273439   -0.88984490378839
H           0.59134468125057    2.61120032577915   -0.44551286377350
H          -0.32568147187431    2.01058599316851   -1.54166644199279
O           2.16020675884862    0.10241467968453   -1.17890616604101
H           0.81351934328712    0.29309516604459   -1.98581600813450
H           2.00279212113038    0.69829758666165   -0.41299627934634
H           2.11432764525091   -0.78939006369776   -0.80042442767631
O          -0.96201660166425   -1.86934274521928   -1.18394760232823
H          -1.70640952816384   -1.40883075741874    0.08808862350164
H          -0.76702352675063   -1.06259602274506   -1.70697940826738
H          -0.10601616210295   -2.13396132265830   -0.80070712725713
N          -1.99414015466147   -1.01616991335745    1.05072525895170
H          -2.54947836317398   -1.67452219352079    1.58629202149878
H          -2.46751311331207   -0.11918904647890    0.94585970181401
H          -1.04654580159199   -0.77199137534706    1.54528820374266
