    26
        -50.44576692  Gyration_radius:  2.58329455692 Dipole_moment: 6.291
 S           2.75611043032243    0.68392714488938    0.65076732521067
O           1.67674973440745    0.19517368702232    1.47673741327752
O           4.00495363724479    0.91528515082842    1.26839961271489
O           2.93992105753770   -0.32381214044312   -0.52293553616447
O           2.28928897411884    1.98376623747871   -0.05500696261934
H           1.32544819348598    1.95508745029570   -0.30635956265772
H           2.08567007210591   -0.79296441328238   -0.71116440478510
O          -0.20545164075958    2.06563850897180   -0.78545271839227
H          -0.29948503764134    2.85066992078835   -1.32704296041501
O           0.75965313155849   -1.69369825308169   -0.98015606097363
H           1.03517308751312   -2.58393221625607   -1.20563285295885
O          -0.95484921773093    0.89794047408024    1.61510237447923
H          -0.02269623123581    0.82482770760463    1.87576326687816
H          -0.92359860132074    1.45091983862158    0.82093633192943
O          -1.11691282033699    0.02375767226701   -2.04934604635473
H          -0.54094295115544    1.28973989764684   -1.34285860033151
H          -0.42718283946067   -0.64026317522453   -1.89896124057006
H          -1.86053662133058   -0.23634423583937   -1.45043004670286
O          -0.28930713974345   -1.74385534686816    1.39419512469713
H          -0.76152028811925   -0.88799526929615    1.44871102284358
H           0.31324490885475   -1.74708174506186   -0.08073039032401
H           0.52916452318054   -1.56999574611664    1.87412273940899
N          -2.93107322078891   -0.67199440008390   -0.15164073531213
H          -3.92094155961182   -0.57899011859553   -0.34050446194490
H          -2.69899769833888   -0.04791165897276    0.61444110613982
H          -2.76188188272641   -1.61789498138922    0.16904628294118
