    26
        -50.45877756  Gyration_radius:  2.39785002458 Dipole_moment: 7.462
 S           1.02083566401644    0.76355161645805    1.81781879473378
O           1.78489182933446   -0.41081565257674    1.10115385087653
O           1.92386389490516    1.79044283252299    2.21251566871472
O           0.02424192138053    1.24018976430881    0.82583831611205
O           0.31343390809383    0.05671356283018    2.88974813048025
H          -0.24063395783221   -0.97413364636571    2.07808019461418
H           0.38597078664053    1.82484559003129   -0.60513601110423
O           0.17063526804507   -1.82092365358427   -1.24441207347054
H           0.05064246320547   -2.57088591075012   -1.82793932128168
O           0.56886001088126    2.06025946175149   -1.55382614561507
H           0.84833693828228    2.97634939386552   -1.55216037652078
O          -2.37594402592358    0.38011820456136    0.59051675747640
H          -2.98059834168057    0.92271419017276    1.09770063320814
H          -1.46946316029472    0.78782903519928    0.71470779246440
O           2.33363167284972   -0.01593143937425   -1.40453343045624
H           1.81556686096087    0.77878219074814   -1.62978673299813
H           2.14541305699873   -0.14893515960135    0.21233456187067
H           1.74116928985311   -0.76783805453446   -1.55523456596258
O          -1.38577344492006    0.13329265620382   -2.01926516605860
H          -1.93449566757716    0.28030164152223   -1.23372172287518
H          -0.78030155959985    0.89079504701750   -2.06250367647799
H          -0.43150243851593   -1.09993472436511   -1.58445230929168
N          -0.76134827522819   -1.64545295139371    1.35818814599714
H          -1.61924907997663   -1.12802428634171    1.08775160222337
H          -0.97160562811138   -2.54390029792632    1.77966044324784
H          -0.17657797578737   -1.75940943037132    0.50695663009631
