    26
        -50.44375212  Gyration_radius:  2.55161950571 Dipole_moment: 2.385
 S           0.20112430096728   -0.74669503521597   -1.97794487350686
O          -1.15246243350718   -0.63010705349908   -1.51731048950280
O           0.43237194588903   -1.05011893909105   -3.34004788581719
O           0.92320612400819    0.60055548168169   -1.62517932491784
O           0.96380725374993   -1.77324766046474   -1.10212142926180
H           0.80185011305979   -1.58110024331331   -0.13682249349494
H           0.36992813694992    1.07368114137564   -0.91571755065905
O           0.72776705143451   -1.23910338926599    1.42553696770502
H           1.23415874973555   -1.89028715574799    1.91442637502088
O          -0.41562296875339    1.84285585869335    0.15337297479090
H          -1.09486983177431    2.33733773410235   -0.30788424787384
O           3.47546368503250    0.88305046167842   -0.65064001889417
H           4.00580639894719    1.50890409674231   -1.14591955690499
H           2.68566811877665    0.69769881776400   -1.18374012110357
O           1.92948897055444    1.05725218708193    1.57980282139156
H           2.61894357771580    1.03240721754688    0.88958921450043
H           1.24612329952173    1.66028151988399    1.26252267543324
H           1.21236196161430   -0.36494641816526    1.54062998006361
O          -1.64344805437332    0.22917730047525    1.73186536861754
H          -2.39088234922850   -0.17302854103977    1.22262057362048
H          -0.97414108548059   -0.46431429557382    1.80648472201419
H          -0.91587197252619    1.21933668057411    0.78335182657522
N          -3.46542520809748   -0.94212458126005    0.12995675711317
H          -3.72006104417468   -1.90996587256593    0.28174868437367
H          -2.76752840192345   -0.91995941944029   -0.61196871553452
H          -4.28775635811070   -0.45753990296070   -0.20661223376766
