    26
        -50.45260135  Gyration_radius:  2.49763204425 Dipole_moment: 5.351
 S           2.19536431229836    0.03418181370343   -0.69456950575336
O           2.06128541757781    0.59752758603190    0.67301954968587
O           3.50150517222612   -0.45448918788064   -0.97220570099259
O           1.13615336834879   -0.98853335088826   -0.86784459586380
O           1.85912405314778    1.18841371422558   -1.69054951821843
H           0.93802286153202    1.48612233101258   -1.51916143697679
H           1.12811246479910   -1.71142229003472    0.53086509211872
O          -1.35480859080892   -0.90298070383816    1.95126322722973
H          -2.16043747089663   -1.15071145088444    2.40537297634227
O          -0.57806271757791    2.13930693707620   -1.16702322142521
H          -0.53799978608568    3.09074504372302   -1.27926732324058
O          -2.49003492848796    0.45376758114393   -2.15185714222188
H          -1.86161778540773    1.13045320084746   -1.83943733713750
H          -2.25309179231294    0.26240198648617   -3.06078327161509
O          -0.27946710178803    1.61391233285063    1.33637856778209
H           0.65151391361899    1.33319342917487    1.18438597568640
H          -0.56885058060069    1.97429086382249   -0.17465223414037
H          -0.74979219083198    0.82254607461377    1.64256713375112
O          -1.49131783692796   -1.48609122468441   -0.55033942141089
H          -1.49657170015237   -1.12699762487369    0.97647220621348
H          -2.00425018219399   -0.85360799742288   -1.09337529253859
H          -0.56183023390281   -1.35714448077843   -0.81851476856392
N           1.21191165665457   -1.60584641621827    1.59214681395197
H           0.25331980956305   -1.47998429381738    1.98001297661825
H           1.71286018251428   -0.66471617168234    1.56386127865078
H           1.73895965573093   -2.34433770166975    2.04323498205640
