    26
        -50.45260100  Gyration_radius:  2.49760034009 Dipole_moment: 5.350
 S           1.50955835989496    1.65398233081396    0.53863114286474
O           2.18189807709491    0.52113975299380   -0.14806663269643
O           2.22460235507667    2.87799283265483    0.42758608369482
O           0.12207941552564    1.73493132710366    0.02383171736403
O           1.39818141754776    1.26185291670387    2.04575626775353
H           0.86217099771501    0.44047753486968    2.11197100055634
H           0.31090872808608    1.45008862578666   -1.51842816341074
O          -0.76064255425016   -1.26883947587190   -2.06534957351188
H          -1.34828410201384   -1.83300467169355   -2.56835979963844
O           0.08373898040885   -1.04895426733160    2.27230008899088
H           0.51364329059064   -1.54754410446982    2.96948144509390
O          -2.60206054032166   -0.65815648825025    1.95649234433817
H          -2.85088310401085    0.06570472259925    2.53372248784899
H          -1.66655337695602   -0.85479998801458    2.14769946079452
O          -2.09001877215938    0.30116002573464   -0.52171935665259
H          -1.34816543319253   -0.71213397893244   -1.46067811613993
H          -2.41490953005614   -0.11192142301788    0.30400542641376
H          -1.38748181670520    0.91716743706312   -0.23938557161581
O           1.03133566467704   -1.84623625655822    0.01419981055911
H           0.39213278796906   -1.45669992661157    1.40580423515922
H           0.40460035727029   -1.80286732735863   -0.72509901832373
H           1.58919781135050   -1.03862739399560   -0.05668275475238
N           0.83196012738706    0.88411245164197   -2.26030235500640
H           1.65592831214550    0.62405511571147   -1.63345874527695
H           1.08690204998536    1.41515581725175   -3.08473146402832
H           0.27016046698378    0.03196441117412   -2.46921996037739
