    26
        -50.45476408  Gyration_radius:  2.47354209331 Dipole_moment: 6.120
 S          -0.29691280128631    0.20039657409444    2.31302452170759
O          -0.08773153568450    1.28023651429609    1.31093444316009
O          -0.66197009377707    0.68698973608005    3.59643508001081
O          -1.25083929172426   -0.77553778749262    1.74108813362018
O           1.08028711385028   -0.52886350396482    2.43018393584316
H           1.35758049016083   -0.81924108168643    1.53329764875289
H          -2.13779263718934   -0.01919674456533    0.64325892141099
O           1.96660923354810   -1.35551488769291    0.06401168807264
H           2.90611420534730   -1.52915654165434    0.13410258801087
O          -1.11982950434972   -0.60620092508228   -2.14640243577585
H          -1.47232772189697   -1.05109536366486   -2.91765787628953
O           1.38325581943450    2.57919450496561   -0.46165319600607
H           0.87039233081088    2.16314269864936    0.26148848243615
H           2.14407790552051    2.98771740549815   -0.04697445036291
O           1.53647752027146    0.30179575047706   -1.88816641410081
H           1.52464633432513    1.19380161019933   -1.48329761177343
H           1.85101774492595   -0.70666184734905   -0.69354916072406
H           0.62061959787257    0.10928274952074   -2.14002576984981
O          -0.56629876933673   -2.32751946889430   -0.29330109317908
H           0.39942638096323   -2.31724637054246   -0.22072078084056
H          -0.87479684717427   -1.89007539995349    0.53107811320882
H          -0.90017979921112   -1.33003006854882   -1.47921333564128
N          -2.13152192819924    0.76946707714933   -0.06734824696481
H          -1.27539939556461    1.26778967949182    0.35379757722302
H          -2.97353825021676    1.33258052542291   -0.07009253529749
H          -1.89136610142668    0.38394517526373   -1.00429821653526
