    26
        -50.44243836  Gyration_radius:  2.49231568043 Dipole_moment: 5.218
 S           1.79130530653236   -0.15762940956004   -1.34926905799635
O           1.46910486485717   -0.48847894656260    0.02175496259089
O           2.92901421828327   -0.80113317129287   -1.89230414284839
O           0.50975129839237   -0.42099246331739   -2.20447020530137
O           1.92030086911995    1.36740973573248   -1.47197218760133
H           0.97375214484541    1.74705885070323   -1.48700894437761
H           0.09735594466999   -1.28492931650450   -1.91364891950368
O          -1.91610469352281   -1.54262382606982    0.80520194766627
H          -2.59646656284421   -2.03385419052812    1.26841997030924
O          -0.49790370252694    2.12902761009031   -1.57552587581365
H          -0.81131641388863    1.55040919245953   -2.27533712016408
O          -0.76625521088083   -2.51250276542957   -1.41886664659308
H          -1.46452871185333   -2.71667116435435   -2.04464173994904
H          -1.20113378472566   -2.18864732577914   -0.59750494085248
O          -1.62573337500023    1.26383389058009    0.63171680917887
H          -1.78387414691609    0.30816437671212    0.62528150393583
H          -0.84850633741989    1.42035741192357    1.20561960873108
H          -0.98593482018946    1.86005064438506   -0.74851602538620
O           0.26264647577172   -1.36653304643602    2.23500168077556
H           0.83854212916338   -1.24039414818234    1.45804314167589
H           0.27543836858973   -0.52338531952631    2.69640764111679
H          -1.11292531572615   -1.54625905503478    1.39628180256882
N           0.86199432511142    1.74194972999557    1.71459773670523
H           0.99763923568016    2.62646459442409    1.23824396065237
H           1.27441332696115    1.02566477826747    1.11597066043206
H           1.40942456730919    1.78364333298431    2.56652437996027
