    26
        -50.44604379  Gyration_radius:  2.49100429216 Dipole_moment: 5.651
 S           2.08594181452734    0.35981624449914   -0.19448320786947
O           1.49343767620217    0.01147735205245    1.08278868559255
O           3.31150508064903   -0.29627911486976   -0.48555184028546
O           1.02799229319675    0.02821956330066   -1.30315797215850
O           2.18343536649270    1.86786093025280   -0.32263977230179
H           1.19509767025546    2.19277484151774   -0.22217214242068
H           0.89927558240582   -0.95279504747623   -1.33450020298824
O           0.58480427919778   -2.53747869899979   -1.04806703425131
H           1.41682480029764   -2.92609599525031   -0.77133215910935
O          -1.92148049117087    0.32117850408264   -0.65246163880924
H          -2.76190393502901    0.74893168008698   -0.82612345583724
O          -0.23120075844122    2.43384538661053    0.01826654281599
H          -0.29237072678070    2.34354776308481    1.00577785190616
H          -0.72298331312694    1.67348463762868   -0.34215612879825
O          -0.65565689239358   -1.54299497203584    1.00460606177809
H           0.13237190918730   -1.00574789237780    1.22246505348112
H          -1.26558504432352   -0.91454128757459    0.58743360409427
H           0.06491301849496   -2.33266729642845   -0.21458046739363
O          -1.63343686271857   -1.63714822999031   -2.50236648673729
H          -0.77903819225983   -2.02713189546852   -2.27211036447378
H          -2.28577997034318   -2.33215002633050   -2.39266886495691
H          -1.74398812022963   -0.26617627171910   -1.41812869584586
N          -0.12300322047918    1.82981089908042    2.62730637045182
H           0.32399045078869    2.47277678411272    3.26793211843539
H           0.56461448642941    1.12745630836693    2.35951134928997
H          -0.86777691082285    1.36002585386563    3.12641278639867
