    26
        -50.46492178  Gyration_radius:  2.56426111732 Dipole_moment: 3.253
 S          -0.81892749160470   -0.57775449757867   -0.66021929876582
O          -0.45377452596048   -0.94205033019304    0.70177045742591
O          -1.80756256041080   -1.63575095820743   -1.20140751848534
O          -1.49271565351144    0.71285256700973   -0.70318816626339
O           0.36312764494564   -0.57751832837198   -1.53775832536518
O           0.33067158164396    1.13876313727341    2.21763964236170
H          -0.48519295496905    1.67046183373629    2.15149595184363
H           0.11096032229766    0.30528091876088    1.75796856803760
O          -2.06840731144820    2.17019037567762    1.46109711985782
H          -1.95829314554319    1.63925951900678    0.64663018703027
H          -2.84996561458631    1.82747598862232    1.89714726050850
O           0.71578515293725   -3.31269813041299    0.83975405924147
H           0.24521793355213   -3.81327844253207    1.50831983519129
H           0.34804088996117   -2.40283102511892    0.87300968290505
O           2.13809086940972    2.27794630766713    0.76462071308362
H           1.46545513829119    1.90540917641854    1.41425886457481
H           2.91022159912321    1.71516972051760    0.84413243753614
O           0.08347868667485   -3.27017880470088   -1.76325093942633
H           0.57662057701792   -2.46672489137232   -1.98218732994501
H           0.39289739101849   -3.51888142735542   -0.86566959052288
H          -1.21665708501462   -2.40114237454737   -1.47288179066896
N           0.71296492426181    1.94920281825637   -1.40103570965732
H          -0.28088708409304    1.99082306307601   -1.11136905245238
H           1.34348977161120    2.17087692995438   -0.56058514736650
H           0.78820665244403    0.90351189635008   -1.61698616021537
H           0.90715428195338    2.54158494801881   -2.20130574046198
