    26
        -50.44604372  Gyration_radius:  2.49110204787 Dipole_moment: 5.649
 S           1.37869174668450    0.87279398994376    1.36277883406130
O          -0.04878619450063    0.88146742026649    1.61990498941581
O           2.18837045236812    0.56149568684552    2.48735358639294
O           1.63773122312953   -0.16503106856293    0.21641977571133
O           1.78780554121587    2.16687369389483    0.68585735103814
H           1.21027870958464    2.18788032377820   -0.18501644406976
H           1.42833270787347   -1.07089965412334    0.55639238382493
O           0.75688458606149   -2.43676649545859    1.16881700138754
H           0.92991767792521   -2.41644239063926    2.11196086634416
O          -0.48532055974223   -0.55615091984289   -1.91752725249942
H          -0.74029484650124   -0.50546793483411   -2.84052264301426
O           0.26089537275135    2.05662605731315   -1.29497925937977
H          -0.59213519980843    2.34014205618488   -0.87182419022802
H           0.15435612686169    1.10574937631454   -1.48043827470156
O           0.85689577052930   -2.88747207072700   -1.59388647802237
H           1.07871369123638   -2.87842077782417   -0.65270315887879
H           0.29197040725547   -3.65077375451126   -1.73103606054670
H           0.13937400996933   -1.30889652170504   -1.84171749384957
O          -1.43928336799448   -1.15611984110751    0.64215777135675
H          -1.33482750501626   -0.95490992759844   -0.30103847104465
H          -0.17696077511037   -2.09501542959006    1.03423811541705
H          -1.08894246362663   -0.36453234999038    1.09789289334856
N          -1.90329803835655    2.56982087548171    0.20051651701515
H          -2.80260580534112    2.12752924615676    0.05879720683559
H          -2.06818659998149    3.51307149182791    0.52719531981264
H          -1.41957664744866    2.06344892857954    0.94040713435682
