    26
        -50.44604383  Gyration_radius:  2.49126263605 Dipole_moment: 5.649
 S          -1.40642053851121    1.12397653779945    1.13327054576227
O          -0.34385467170036    0.37270005018955    1.77389848014834
O          -1.63094624829478    2.42022263930725    1.66837923715657
O          -1.04681292658428    1.23116556446256   -0.38911168569110
O          -2.66924266283343    0.28563453608508    1.07865034755441
H          -2.38261100230938   -0.56534306070539    0.54433813335549
H          -0.23608685488127    1.79118362837304   -0.48456516394821
O           0.46734506130322   -1.04912136014245   -1.70377662008203
H           0.48908085850701   -1.74426512245763   -2.36393553940311
O           1.25672107284344    2.47031679507965   -0.44000005522933
H           1.24548118196895    3.08703882699953    0.29443195175743
O          -1.75522248589244   -1.69488261250385   -0.15035690078719
H          -1.06046117401190   -1.33396975361865   -0.73083586900309
H          -1.27142133752835   -2.14981604429947    0.58857364770940
O           1.12196607111626    1.25941854266715   -2.96094753854918
H           1.07879359598192    1.91253521095607   -2.24915757808751
H           2.03180063007332    1.25198017400594   -3.26553236350123
H           0.53647536299266   -0.20003769095088   -2.19063471060083
O           1.90920051987508    0.10156090727642    0.39904898517091
H           1.18130771619980    0.13062849003350    1.05208643771658
H           1.57079252071608   -0.46553977782025   -0.31140708441294
H           1.68329991533948    1.62517421890981   -0.10735803409400
N          -0.33001414558901   -2.50283536351257    1.97116000256467
H           0.60208794790071   -2.89176918920925    1.90498946035683
H          -0.80120766014707   -2.95311817684404    2.74502315717251
H          -0.24005075655927   -1.51283796007306    2.19376875694634
