    26
        -50.44348957  Gyration_radius:  2.51251692668 Dipole_moment: 9.027
 S          -1.09274703668653   -1.97917464367990    1.25609493053742
O          -1.02229679375878   -2.14606619803629   -0.17230138131529
O          -0.98511288069292   -3.14619364547239    2.05334148231136
O           0.06626530089609   -0.96698837320570    1.64654914264656
O          -2.33009483158550   -1.17207522496575    1.63602274244790
H          -2.34192728055124   -0.36040156920699    1.00187152772681
H           0.80143226924573   -1.02016714324686    0.99288852833481
O           2.17072415947452   -0.77633984092780    0.04385781534113
H           2.92661245345587   -0.79480987465504    0.63338117210570
O          -0.47661240041692    0.67737943722351   -2.08095208575549
H          -0.95827451263859    0.84539699886526   -2.89175791542896
O          -2.15100222070250    0.84291875179445    0.13229314131243
H          -1.54505012452311    1.40044686253170    0.68487265588593
H          -1.64162241464622    0.63650400474521   -0.67100407585174
O           1.64729941528670    1.70798632499744   -0.80820749912362
H           2.03249468890540    0.16390938799469   -0.22342126606251
H           2.21645815408742    2.05538203637711   -1.49744215170301
H           0.80467343825592    1.45955263705658   -1.24761153514916
O           0.63658260666117   -1.68068422247916   -2.16562473589645
H          -0.03567903789018   -2.06406805745002   -1.56879367574348
H          -0.08132875726400   -0.23741188803033   -2.17039973699304
H           1.42349422493091   -1.60140100609522   -1.61337086186115
N          -0.24012315315952    2.01471313511549    1.61396926579455
H          -0.34912997874024    2.74611096387932    2.30348118949879
H           0.54599111327594    2.24713896431061    1.01848250613286
H          -0.02102642122794    1.14834219259596    2.09378081081285
