    26
        -50.44348960  Gyration_radius:  2.51253023848 Dipole_moment: 9.028
 S          -0.92265839529500    1.22168741084050    2.08446156325841
O          -1.29007799468965   -0.16772789201502    1.99686694569972
O          -0.73695104735963    1.76496509171558    3.38045059765899
O           0.41766265783292    1.38411879534409    1.24932163811991
O          -1.88516065360426    2.07796756339620    1.26770540166509
H          -1.97783321329461    1.60591905543465    0.35684207935742
H           0.91958085908076    0.53644537322504    1.23962136904352
O           1.97476082261429   -0.73931564946625    0.93323072478799
H           2.86045158413529   -0.41991585036187    1.11434238246805
O          -0.96875114533797   -1.70989139690569   -1.07445065741202
H          -1.63893359156446   -2.29983260419612   -1.42151075642078
O          -1.89687335439099    0.90861028100486   -0.96522544160940
H          -1.09178409636312    1.32544097510898   -1.36709879508696
H          -1.67189087714133   -0.03340805482186   -0.86870693601954
O          -0.23426863864917   -2.48113422415968    1.30726832572129
H          -0.73489380512622   -2.05106936389771   -0.16340929669888
H           0.68215422481096   -2.19111619752122    1.38821104600122
H          -0.74791073772085   -1.77098662100415    1.73966708179921
O           1.54468458412524   -1.01067222629167   -1.69608645496855
H           1.92902393222382   -1.78153616704323   -2.11766762763830
H           0.58665551200677   -1.20253590975797   -1.59506350958249
H           1.88467102215609   -0.80843616502066   -0.04742843161068
N           0.49242372125119    1.89068793194627   -1.70408417702626
H           1.09545419878019    1.12467515475130   -1.98002906492188
H           0.73010995464641    2.14577252110579   -0.75157553593075
H           0.68035447684593    2.68128818860919   -2.30565247061242
