    26
        -50.44348955  Gyration_radius:  2.51254559767 Dipole_moment: 9.028
 S          -1.41907010050757   -1.56541838982568    1.49169330649452
O          -1.46217676395759   -1.88056879266769    0.08742666482829
O          -1.51908243126391   -2.64557082886620    2.40406824600941
O          -0.05244914579533   -0.79544325473653    1.73628610820655
O          -2.43481682978011   -0.47673056272554    1.82300375276040
H          -2.30796218358547    0.25342343482921    1.10753965035008
H           0.61862065285946   -1.06909679504810    1.06892526398348
O          -0.43252838778670    0.56128565954584   -2.12470314256433
H          -0.91013495136407    0.75084535771462   -2.93316406874636
O           1.95552763314787   -1.22025619848010    0.05674288269003
H           2.72073908019763   -1.34533588532102    0.62071469329493
O          -1.91266660879141    1.29754865871056    0.11046964968966
H          -1.50241833747095    0.90955792429107   -0.68232644658966
H          -1.17360475905223    1.76104443349068    0.58192277877636
O           1.92662751254742    1.22481877803791   -1.03536164113252
H           1.02816615182686    1.12377239451830   -1.41930707981163
H           2.00610638054629   -0.30257501509695   -0.30365950820438
H           2.51874944770219    1.37299822457294   -1.77503127245739
O           0.14836300419083   -1.97887051025861   -1.99549492667401
H          -0.24585739900620   -0.42169589370296   -2.12960585670961
H           0.96258990964719   -2.01924334064148   -1.47982421381348
H          -0.55697927882564   -2.14838120866187   -1.34061833176202
N           0.27964356322963    2.16452672403600    1.39961139607675
H           0.36519912579897    2.96506984292329    2.01122610300614
H           1.06421014658358    2.16276167640418    0.75848353813360
H           0.33520457896812    1.32153356701969    1.96098244417496
