    26
        -50.45899774  Gyration_radius:  2.47056732315 Dipole_moment: 5.011
 S           0.41651528230005    0.26820968077280    0.94305999159511
O          -0.47443604507844    0.84430934200774   -0.08856371852258
O           1.41806153981992    1.20931365915786    1.36306494960743
O          -0.52945655780596   -0.06987675145776    2.15063441572775
O           0.92812520247619   -1.02199107245197    0.50578557598325
H          -0.27488909295659   -2.12050857038019    0.69436348691041
H          -0.74871444884029    0.83295227022677    2.53046641071411
O          -1.17925692349468   -2.51973803684183    0.71172163987101
H          -1.54248027235438   -2.26358806133173    1.56358705854906
O          -0.30235295244987   -1.59394138747164   -3.03014910783288
H          -0.22605947004747   -2.54362358283050   -3.14151777107922
O           1.81875029527939    1.74149917226918   -1.30363673270591
H           2.09485985870846    1.71229519280907   -0.37708852426464
H           0.85463385072198    1.73625398467957   -1.25402052869702
O          -1.83592078018772   -0.92020528365868   -1.15637123524706
H          -1.71371367623074   -1.65650966337177   -0.45296262601049
H          -1.31332755549375   -0.09751573112485   -0.73305113531526
H          -1.25573789374554   -1.20023761854693   -1.98940764280149
O           1.94209844585960   -0.87998976409670   -1.98347948769002
H           2.07456728016409    0.08835140709878   -1.99089117772977
H           1.74006365921181   -1.08251286259967   -1.05218406472724
H           0.60246474056379   -1.27805421603217   -2.71140960405121
N          -0.70883247700349    2.45480517520353    2.73045168724964
H          -1.31724457309512    2.96730884657631    2.10544040251068
H           0.23064878099968    2.46877315127522    2.33946767636383
H          -0.69836620728619    2.92422072017906    3.62669008165390
