    26
        -50.45808741  Gyration_radius:  2.56496246236 Dipole_moment: 7.875
 S           0.64985908345329   -0.75821387954275    0.47583546074016
O          -0.54631113030438    0.27430589324202    0.46097471792795
O           0.66316052085477   -1.28571513537698    1.84997252117598
O           0.38694069916052   -1.77041395962718   -0.51187587581747
O           1.82966510044259    0.05346144309066    0.21927897253052
O           2.39442402936898    1.89100143373966    1.97549841519341
H           2.23791758562935    1.26435763767072    1.22292178857219
H           3.30721851441530    1.75677530542785    2.23712600560837
O          -0.01392166395979   -0.87130563547694   -3.05512956149271
H           0.35942180816037    0.01859962385727   -2.91194994122125
H           0.22295000530521   -1.36252179803378   -2.24991072937062
O           0.82868667330308    1.43301088773491   -1.87409750650886
H           1.33740257743532    0.97224490257838   -1.18425594538131
H           0.01717634593885    1.71875700062470   -1.44741647715973
O          -2.61842900287896   -0.65921529559522   -2.72160300345761
H          -1.64789741435262   -0.69298033908710   -2.93632079102676
H          -3.04580883712271   -1.24614287039924   -3.34673898817815
O          -2.28034333080772   -1.42345147660452   -0.21327256119838
H          -2.55628990793001   -1.12713962200911   -1.11895798085471
H          -1.53249659265840   -2.02221833455686   -0.35938443252496
H          -1.35516256259427   -0.30394264858944    0.23054198660126
N           0.25553832294275    0.85177802798561    3.09442122439380
H           1.12295665482338    1.39631459062778    2.82550216125928
H           0.10021030629045    0.82387079651633    4.09660634362069
H          -0.54585616038748    1.23698243504341    2.59852646397046
H           0.42898839548571   -0.16819899324019    2.64370770260699
