    26
        -50.44394641  Gyration_radius:  2.4935731571 Dipole_moment: 6.141
 S          -0.75480577032612    2.04739533215704    0.35413843253416
O           0.07064269531062    1.52857419811299    1.42174260849112
O          -0.44940517057453    3.35930413179266   -0.09353517131519
O          -0.63095935542462    1.03575755955156   -0.84621019129236
O          -2.22300551960740    1.88608711745566    0.70757750152045
H          -2.32822906545078    0.85522832209151    0.96785172135314
H           0.31093432078890    1.02093363479324   -1.15067435206638
O          -0.42382851437513   -2.26506655760977   -0.23252549935381
H          -0.23135216732013   -3.19924511807405   -0.13714326370458
O           1.79794411733980    0.75974886634283   -1.80374075340709
H           1.99759874821808    1.34027847852627   -2.54043267330319
O           2.77554678862653    0.66288378710440    0.86605385136725
H           2.66461559054646    0.69724575312730   -0.09215141587521
H           2.11152820915706    1.26535659429581    1.22470626217947
O           0.80342880308574   -1.01798726496312    1.69830003903947
H           0.10328211587972   -1.80280717007021    0.47997841342234
H           1.73865357621064   -0.82771052181531    1.50933428850225
H           0.41511029143706   -0.11978802810693    1.71360381411728
O           0.37942560730442   -1.29092890010384   -2.61246976327191
H          -0.40571943460525   -0.84493984340031   -2.93730230407599
H           1.45615591895481   -0.09291625401022   -2.18204310159521
H           0.11017675580161   -1.68320527018998   -1.75226397410009
N          -2.33762499291528   -0.57439977425705    1.29901322475955
H          -1.88746136023472   -1.09602561033082    0.54966459916454
H          -3.26989242488762   -0.93856906069077    1.44581790408098
H          -1.79275977280313   -0.70520437173357    2.14270979275237
