    26
        -50.45859670  Gyration_radius:  2.45197779877 Dipole_moment: 8.069
 S          -0.11950567416705    0.42668173091031    1.98837226738956
O          -1.39725229558143   -0.07431587341160    1.48770787945554
O           0.57316635133499   -0.49517788552409    2.84275783271878
O           0.78396012009840    0.61926149011926    0.67528031685510
O          -0.23921141818625    1.79234247028985    2.49232235883417
H          -0.32908631089676    2.59456527401118    1.29593807277150
H           1.17449442688534   -0.27101655101681    0.54023749880132
O           1.47064289296087   -1.93020736432233    0.79110588714653
H           1.36473862187498   -1.68409751354868    1.72816910082228
O          -0.42216992432063   -0.69854465372687   -2.25777981789270
H          -0.58781506974695   -0.84085320815616   -3.19063600988434
O          -1.81618345830573    1.17037129029897   -0.76532528353018
H          -1.83373527676317    0.67757943339048    0.09213305063421
H          -1.31843997311337    0.58953378452518   -1.36759646384845
O           2.11964211111683   -1.47291602930787   -1.81223319421485
H           2.37330108270123   -2.30917624415195   -2.20759477604979
H           0.53316404673779   -0.87863639564791   -2.10787245881280
H           2.09464437469615   -1.62990475474701   -0.85120422255394
O          -1.02536830343590   -2.28095968909824    0.02691432043997
H          -1.02882669291868   -1.84834482768662   -0.83912887990359
H           0.58040078428757   -2.27823848896855    0.52664657773932
H          -1.32349965909772   -1.59498889514088    0.65686937523524
N          -0.38667382342043    3.04521736036746    0.29226895076398
H          -0.99713876129617    2.33713899389644   -0.26510117168469
H           0.55334259520851    3.06173090358251   -0.09158653707964
H          -0.79659076659944    3.97295563307527    0.31933534583058
