    26
        -50.45859674  Gyration_radius:  2.4520080645 Dipole_moment: 8.070
 S          -1.26863312045029   -0.62694787616091    1.46522453128977
O          -1.16119220543274   -1.62950589914552    0.40805481005289
O          -0.62827907832826   -1.00406145958788    2.69295053871019
O          -0.47854756637433    0.64962350322060    0.89633011277201
O          -2.63402451380639   -0.12327518325477    1.58992285216397
H          -2.78446218048403    0.74986021545337    0.45094080888166
H           0.45201732124959    0.46777819805557    1.14993090397254
O           1.79008503187488   -0.37908533724597    1.77963919114237
H           1.13587103822413   -0.68389618712717    2.43459720157359
O           1.38755794268428    0.18994120016636   -1.95024926996121
H           1.84604434606024    0.36120189997245   -2.77390221454522
O          -1.33170539289147   -0.31650764775026   -1.83867964004111
H          -0.39936967642605   -0.05829944724158   -1.94788249048015
H          -1.32288635178217   -0.95362943937114   -1.08216078179653
O           2.83586139749002    1.38003791578377   -0.01475457307049
H           1.85058629760947    0.70814179329044   -1.25415662450348
H           2.52705739559647    0.89060241855069    0.76877357860682
H           3.78296105706359    1.23464046371096   -0.05780894450129
O           1.40258155560384   -2.05993018673799   -0.21078924114573
H           0.45427605812530   -2.12607982201319    0.01849000505559
H           1.43746378533778   -1.46953514727434   -0.97718040539768
H           1.82698124436433   -1.11055024473393    1.11091227036622
N          -2.72554476553636    1.36697500642857   -0.45995602634251
H          -3.64634810765736    1.59904417363818   -0.81739526664789
H          -2.15760682972112    0.74362860270200   -1.14804909207205
H          -2.19074467234399    2.19982849667657   -0.23280225406189
