    26
        -50.44599984  Gyration_radius:  2.48344504548 Dipole_moment: 3.225
 S          -1.29171606948099   -1.29720458736817    1.11032327241014
O          -0.52057444243663   -1.72887826056247   -0.02788095841639
O          -2.24744205346095   -2.19605265049863    1.63513042650239
O          -0.28685852495339   -0.86415002608794    2.22194245693552
O          -2.00969384569182    0.02913748766517    0.75843255529643
H          -1.34802712131157    0.72035432761736    0.44763307947533
H           0.63671835191323   -0.83294789857943    1.85673543854389
O           2.20502111865468   -0.48663736511178    1.52410668109434
H           2.79861609432705   -0.81948351397807    2.19968681509236
O          -0.37942050762036    1.86419694866822    0.00156407746511
H          -0.89289027486092    2.64738804757006   -0.20487960609936
O           1.83575609917423   -1.03498962300479   -1.22887844694577
H           2.28015290109518   -0.79956590937189   -0.40585232925606
H           1.02327611999216   -1.48154695978733   -0.94258384530944
O           1.34014086951123    1.92496461523226    2.08388113286370
H           0.77681482760723    2.02555469154531    1.29006516625416
H           0.73894298341843    1.77235382497829    2.81664114078819
H           2.06857362595473    0.47946239758674    1.70572184426599
O           0.40511636608580    0.99284145576934   -2.21982041510159
H           1.07530528497723    0.30796212269960   -1.99440779236709
H          -0.39843349602771    0.47621519656947   -2.46988929151985
H          -0.00126158422721    1.53390633486200   -0.91361860189150
N          -1.77777074699322   -0.60149620746416   -2.37676144222294
H          -1.42360533163735   -1.16845900891181   -1.60810363975586
H          -1.92448361761941   -1.21599144559172   -3.16787072365410
H          -2.68225703628911   -0.24693400426601   -2.09131698456496
