    26
        -50.46981913  Gyration_radius:  2.46640145918 Dipole_moment: 5.184
 S           0.24287410749437    0.64396732337324   -0.70622373169819
O           0.28281327952716   -0.74126132649952   -0.16068172249331
O           1.68647993403730    0.98090334702697   -1.14879763890226
O          -0.64604315271153    0.71683186297629   -1.83835177229691
O          -0.08103433582102    1.56410269030867    0.37199926552382
O           0.72008393191912   -2.28330877217799   -2.30894332904544
H           0.62150076856398   -1.79473415036209   -1.46906371306592
H          -0.14664333452764   -2.63787249166393   -2.51689850922311
O          -2.07464430373818    0.71905658765227    1.98907711275876
H          -2.50491522276548    0.15806613841285    1.31179811336014
H          -1.51807299972323    1.32300266413661    1.46278088675087
O          -2.41338641151561   -0.73695206904239   -0.25279132057109
H          -1.46291555452345   -0.93731417908073   -0.23539249401613
H          -2.50340912003772   -0.13632253928389   -1.00005494997123
O           1.63332627964809    1.60013001563841    2.37175507379831
H           1.57827096034710    2.44868023593863    2.81450096323654
H           1.12901037226983    1.69699494684522    1.53189951643492
O           1.34054985201705    0.05734299305441   -3.51628964934903
H           0.43826627783433    0.38102977971094   -3.36558182350739
H           1.75419785723768    0.66581414589827   -2.09843942576939
H           1.30283010235845   -0.89784671948639   -3.31074441230183
N           0.13222673573083   -0.58983293140222    2.45119939510287
H           0.22073256961086   -1.41758537949651    3.02951911205121
H           0.81815254826840    0.15930978037904    2.69804467987101
H           0.29569358053168   -0.79508548485014    1.42480009771332
H          -0.84594474204251   -0.14711647747223    2.47088024532635
