    26
        -50.44599998  Gyration_radius:  2.48284631525 Dipole_moment: 3.215
 S           0.18876764648903   -0.14603236532230    2.12539535256883
O           0.92181554033892   -0.97796635642049    1.20500319385075
O           0.25724377791805   -0.46874308779753    3.49945706572350
O           0.64371568374013    1.32767272069692    1.89092643452147
O          -1.30088777630918   -0.11829734410753    1.70352849835684
H          -1.39438491550982    0.18039796911284    0.74717154227693
H           1.21001378233817    1.38654559195379    1.07649984940342
O           1.97952590719477    1.85170807987666   -0.29541552176630
H           2.68441517138507    2.47742704464763   -0.11898311525483
O          -1.62682437162664    0.68201799612087   -0.71487284203181
H          -2.56658460591734    0.66840495745521   -0.90545023616768
O           1.87880303301188   -0.77501872325719   -1.34856739771269
H           1.68962950377350   -1.04052522652641   -0.43465048878850
H           2.08045185197777    0.16609656575164   -1.28572003282109
O          -0.32567211411227    3.04913404803666   -0.65517964408551
H          -0.54783432319991    3.35154980500577    0.22849942391067
H           1.19353346621925    2.37561756487225   -0.59971571052903
H          -0.85027851372026    2.23609752605901   -0.80076951595156
O          -0.66418492827558   -1.22573664405994   -2.03506300123694
H          -0.84501411569195   -1.95632572612118   -1.39584103846061
H          -1.21461067093643   -0.07086032552599   -1.30899483772593
H           0.30997790460737   -1.09339656680708   -1.98587511893510
N          -0.96686896656765   -2.86786762058078    0.09662625611440
H          -1.80782300339039   -2.81412430235375    0.65803725557271
H          -0.24095988348771   -2.35807296903447    0.59749366767521
H          -0.68596507024781   -3.83970263168515    0.05645998146825
