    26
        -50.46439119  Gyration_radius:  2.39573117249 Dipole_moment: 3.882
 S          -0.09704956452331    0.37597917307911    1.76109932286936
O           0.43464565404509    1.28759655245418    0.74917051965964
O          -1.00501516453807    1.04403814452920    2.66310684331063
O          -0.76575204721135   -0.77288435978108    1.11269469881073
O           1.10947056811185   -0.20235665034073    2.54986923070517
H           1.65343908865358   -0.68445486149296    1.87421070104037
H          -2.21024210256669   -0.16252021530309    0.79951959930189
O           2.55469225024467   -1.32414292033014    0.64093635911787
H           3.46667467220722   -1.35203665357335    0.93599481147141
O          -0.01874028470341   -0.22683793320025   -2.54906806531178
H          -0.13018286735966   -0.57850092827729   -3.43276417627480
O          -1.33608127041804    1.75660772793177   -1.14035759663108
H          -1.01563859947777    1.09442122000672   -1.77996314585018
H          -0.61081814352510    1.79628287973063   -0.47693137506618
O           2.22579112670808    0.61440516265560   -1.06475370928767
H           1.61043980635639    0.38555384864089   -1.77857368170684
H           1.65990505868357    1.05456614364778   -0.39718518620869
H           2.50976476484145   -0.60804413292439   -0.05986918459494
O           0.26549245431835   -2.20837692049924   -0.83935745393901
H           0.04589383290435   -1.01130283932017   -1.94096462715497
H           1.17620060265345   -2.29926685161930   -0.53711960586794
H          -0.18799094576674   -1.77185072488782   -0.08656076886312
N          -2.77455991759776    0.73524750904975    0.75187997682214
H          -3.78198055508065    0.61662761359142    0.75453421773912
H          -2.37695031031262    1.23941058194391   -0.11825903632968
H          -2.40140811638074    1.20183941414186    1.60871134218827
