    26
        -50.44388469  Gyration_radius:  2.44572940417 Dipole_moment: 3.515
 S           0.94078974643685   -1.13757546731949    0.66090807739000
O          -0.39996254018572   -1.29636628392101    1.15523896725322
O           1.82885460367959   -2.22785967549445    0.81266473690390
O           0.91900374934022   -0.73652262884729   -0.84549173613717
O           1.50870327075333    0.14634142112478    1.32772737104386
H           0.66588250420855    0.68155740704289    1.56584538871913
H           0.83305626814839    0.24144537193074   -1.01142074822063
O           0.86851536038412    1.81860557925124   -1.35808920921627
H           1.49939659295947    2.00449156731569   -2.05598480553315
O          -0.62838496366673    1.41838605063325    1.81404843248569
H          -1.12986940666488    0.73931447206894    2.27424528197575
O          -2.22706649622533   -1.05477282355844   -0.81234394984670
H          -1.94173806557351   -1.75960455038617   -1.40582812004336
H          -1.71588951305517   -1.21918042642918   -0.00259351494726
O           1.63417302504984    2.95477427323953    0.90582392046521
H           0.81993850550337    2.98602969439730    1.42174645572593
H           2.16656872558773    2.25129353138191    1.29238434923318
H           1.16962046389040    2.31947328332911   -0.55553110672715
O          -1.77391691656740    1.56870702292148   -0.50419620219064
H          -1.05871275953240    1.76009514649759   -1.12198373447547
H          -2.07922617221379    0.65854221568947   -0.70870134190468
H          -1.11179539408819    1.53738823249798    0.93473167591642
N          -0.44229359700149   -3.33078603705040   -1.06929595431500
H          -0.46943977684967   -3.25544721018679   -0.05870190031290
H           0.34876922099122   -2.77191245772865   -1.36627586164286
H          -0.22497642531455   -4.29641771836775   -1.28892647158781
