    26
        -50.45808745  Gyration_radius:  2.5648259619 Dipole_moment: 7.870
 S          -0.60137756850427   -0.62821945046576   -0.68447281393781
O          -0.25601578398310   -1.86253691675041   -1.40837910353241
O           0.70268307363787   -0.27273610269251    0.13389970563161
O          -0.76410446657945    0.48620819925876   -1.60554998400602
O          -1.68500951900680   -0.80619720800751    0.24470663660861
O          -2.18750679049914    1.30391289035984    1.89764466140283
H          -1.68416223387084    1.96271149905915    1.38339361051495
H          -2.22616733263980    0.52521881774285    1.31632748603535
O          -0.56465662507324    0.40879800673112    3.76976070716486
H          -1.18522311888566    0.83151191866495    3.11753966308519
H          -1.08271226363900    0.25128511946490    4.56016341623455
O          -0.39955348245544    2.45962932601779    0.19994578586664
H           0.42636839280275    2.13235385458301    0.56453763683810
H          -0.61338950942655    1.86238093837847   -0.53800898784000
O           1.13978302700240    0.86185242506951   -3.34157877972285
H           0.39226269395711    0.84200184221343   -2.69008039121464
H           0.72702633412190    0.89574404233973   -4.20653533274234
O           0.04393310767083   -1.60413438757949    2.16757163496071
H          -0.82028441541612   -1.69549057783689    1.73864639849163
H           0.58682218452809   -0.79595394883935    1.00276447117971
H          -0.08504484579766   -0.91231278576009    2.86686391948997
N           2.07431264974406   -1.26475620537076   -2.11238617681373
H           1.04738915073531   -1.64683801312829   -1.84199449579742
H           1.87671280475320   -0.43162640306451   -2.73540686225033
H           2.48250905870064   -0.93736787951490   -1.23902174950150
H           2.65540548812264   -1.96543899088394   -2.56035105613801
