    26
        -50.46196458  Gyration_radius:  2.40484867979 Dipole_moment: 9.498
 S           1.02717579172014   -1.43710360188940   -0.90711252733691
O           0.50915923812236   -0.27219934427080   -1.62363153985497
O           2.37816478004824   -1.77001532656688   -1.24028430658605
O           1.02231983616877   -1.00043891647309    0.63993909915105
O           0.05467840904372   -2.52686446231502   -0.93439601203310
H          -1.20805343583046   -1.94285849273567   -0.49327967370812
H           1.91140263750671   -0.51463620410329    0.71171972146929
O          -0.93210312605118    2.19145808272369    0.77666986224440
H          -1.25273868207567    2.92747846356268    1.29955263978305
O           3.22037585599340    0.21442819121391    0.40369979221551
H           3.39566630625699   -0.40043298671168   -0.32705724226242
O          -1.86432182884336    0.82055618545495   -1.46377279221295
H          -1.64834584777838    1.49919581038090   -0.80353007256549
H          -0.98773013795364    0.49250625444033   -1.76612694135591
O           1.57019842413405    1.98031664256103   -0.71807344885741
H           1.22409378770355    1.21396333311840   -1.21971135590378
H           0.83066129688962    2.26726385509564   -0.16850592171064
H           2.83595634471597    1.02657587113975    0.00034110391214
O          -0.98629172635040   -0.21709840820473    2.12921691653239
H          -0.19564301399481   -0.51461106453187    1.61500259926956
H          -0.76704397819835   -0.35224371052519    3.05275325489001
H          -0.97303217125405    1.39481515424913    1.33731052803615
N          -2.10467966184269   -1.41657441989142   -0.14537884263823
H          -2.15411072030825   -0.50387030701274   -0.71500378828894
H          -1.97696284890106   -1.16799039447243    0.84189241195235
H          -2.92879552887135   -1.99162024439023   -0.28223345418067
