    26
        -50.44388462  Gyration_radius:  2.44582687923 Dipole_moment: 3.520
 S          -0.67581603522943    0.14299425120816    1.46288487090154
O           0.73614776929382    0.39073087352769    1.57368872224790
O          -1.50186795765727    0.57158099803937    2.52799753154029
O          -1.23176910000240    0.75559158796671    0.14158328363386
O          -0.83816616794833   -1.38104770344145    1.20435722607579
H           0.06492604617028   -1.64966658653386    0.79759742340911
H          -1.15005173066650    0.16298627142757   -0.65427051053201
O           1.39936533143145   -1.92896334440617    0.14771198238450
H           1.99362945168775   -1.54454790769036    0.79846551577582
O          -1.20792363289037   -0.80205022149787   -1.94842524631705
H          -2.04917052971921   -0.72296692920020   -2.40193796401230
O           1.63504159646673    1.97049494094243   -0.41752162183611
H           1.47998017514442    1.44485840056330    0.38476963656606
H           1.08900087045513    2.75404778599474   -0.28262335556135
O           1.53074073091225   -0.29013623956231   -1.85401282293935
H           1.49835851712668   -1.33726888032082   -0.66538907329590
H           0.64309632129711   -0.28956287652634   -2.23083390819456
H           1.66403153079859    0.59925971326192   -1.46098431877406
O          -0.92242330271258   -3.23546697193273   -0.94884657947643
H           0.03012739864066   -3.30681886182509   -0.81569618267487
H          -1.30513678660024   -3.11996512414812   -0.07255030542928
H          -1.12707514041316   -1.74617894179336   -1.65216116551069
N          -0.25763305950655    3.23138111514278    1.38851832449616
H          -0.60954136660550    4.00374760661316    1.94302064628884
H           0.17358837162942    2.57692833203918    2.03155876551040
H          -1.06145932113066    2.75003873213291    1.00309913569137
