    26
        -50.47455452  Gyration_radius:  2.42600633292 Dipole_moment: 3.599
 S           0.21386495317882    1.52049855219453   -0.00682378481572
O           0.82475338381685    0.72512255828579   -1.07750293267508
O          -1.22198344947669    1.32347603685076    0.04684062388534
O           0.87207268063547    1.23366610440631    1.26056757603122
O           0.44306787723280    3.02305668444377   -0.35559982801063
H           1.41663140000337    3.10794748153960   -0.34002109939115
H          -0.31486168504399    0.45109411105646    2.22675017045670
O          -1.11435501983903    0.00860483667308    2.57274276192271
H          -1.83817825017667    0.56466602257625    2.27470744843804
O          -0.10731320224195   -1.20092413433941   -2.65858521575938
H           0.27726351486224   -0.39704812306125   -2.25049355591817
O           2.95835168436396    2.27186422084357   -0.05485229966296
H           2.50209056046121    1.85504420533378    0.69491767273725
H           2.92175007207452    1.62892467595991   -0.77003834110334
O           1.36755443420963   -1.47099180327744    0.34769455366206
H           0.50825457670848   -1.90957178583866   -2.45455872244773
H           1.20863001082285   -0.68018395117487   -0.20427930863010
H           1.72339460321016   -1.12702915880282    1.17098178251694
O          -1.08960908290712   -2.26105534146883    1.15383709345133
H          -1.78537067493941   -1.62537609651995   -0.04949352009235
H          -0.15152140448201   -2.21355432453979    0.87616241940365
H          -1.17078083494614   -1.55916359217483    1.83890623944281
N          -2.07943637277671   -0.98841677093583   -0.87453285332201
H          -1.45192797395287   -1.18945586247417   -1.69229907772251
H          -1.85275588857088   -0.00661622968674   -0.56137672181613
H          -3.05958591221867   -1.08457829582412   -1.11365109060293
