    26
        -50.47362571  Gyration_radius:  2.40493499682 Dipole_moment: 3.718
 S           0.23630355069414   -1.43374185756329   -0.19739494767663
O           1.05327899424601   -0.27978454212746    0.23736177450940
O           0.43529073102569   -1.67916479661486   -1.61155529603030
O           0.73945890672045   -2.66748447689574    0.58399498819542
O          -1.15845480277359   -1.19482914628906    0.14678356128714
O           1.69208022126910    1.80689899585658   -1.38186516648910
H           1.74822488334723    1.00359764674806   -0.83051568665652
H           1.24829831276094    2.45486262115490   -0.82250396138513
O           0.92314364956259   -0.04903865619472    2.87159508249089
H           1.06585523450137   -0.13115384653080    1.90345025111725
H           1.76994622310822   -0.22493699020954    3.28448262764526
O          -0.35805831184740    1.96862373435354    0.67287845536642
H           0.10601727800024    1.11546743161319    0.54643396289727
H          -0.50844342765557    2.03552013451711    1.61784865544963
O          -2.15018911641854    0.93116518445716   -1.09506356373647
H          -1.74490959036796    1.56573121492788   -0.47649417658468
H          -2.00498166738701    0.06464754658362   -0.65810862173579
O          -0.76583424441956   -2.15383879643995    2.60172398491548
H          -1.33800609962542   -1.78558229334807    1.90904970232079
H           0.21984447775420   -2.64386389048879    1.43907600750833
H          -0.27192897728501   -1.39329024995572    2.96558826826595
N          -0.19136265588565    0.55140854257884   -2.78144260078732
H           0.58076857435712    1.17960073242913   -2.43966417440140
H          -0.31244231222132    0.59437448756314   -3.78700626034138
H           0.07257118431400   -0.42666585366738   -2.45522604631365
H          -1.08647100568961    0.79147711356394   -2.24342682988603
