    26
        -50.45475613  Gyration_radius:  2.58812265376 Dipole_moment: 6.606
 S          -0.41102607507692    1.66338025213279    2.00229967008108
O          -1.69582106789103    1.03135928620045    2.28504544167195
O           0.02898237628384    2.63453973733493    2.95144524413479
O           0.66624650914403    0.43224245672907    2.13167295932901
O          -0.31955310410000    2.03293050857421    0.60127025782818
H           0.86334546441667    2.05466149085206   -0.44353627153064
H           0.82447397007524    0.43265424309768    3.07045948480348
O           0.98366391923804   -2.02588885905744   -1.35833545020935
H           1.60448766930640   -2.61056654296329   -1.79425392161971
O           1.53299304757807    1.95926152600335   -1.17216258635826
H           1.83164812740407    2.84639712962716   -1.37461232648168
O          -1.22230335966106   -2.75799132932126    0.02348758952466
H          -1.63715761536612   -3.45876431049796   -0.48128602783809
H          -0.37209700881716   -2.55825391101758   -0.42076668071937
O           2.34684560506725   -0.33117424593515    0.06389263732085
H           1.53527215323321   -1.42306468249947   -0.77774934909730
H           2.27871823741911    0.48953241947148   -0.45624542222929
H           1.82630915230461   -0.15610009267480    0.86332149423173
O          -0.47794840144403    0.24549139110735   -2.05138266815789
H          -1.45133945776229    0.19255152685540   -0.71943285738288
H           0.18054887145913    0.94427444626161   -1.90620468035919
H           0.01369908052420   -0.58958724628367   -1.99107060816109
N          -2.08705814139744   -0.17094808954674    0.04432686116544
H          -1.86995447552295   -1.18165985910022    0.16925028376313
H          -3.05610721385881   -0.04750572916643   -0.23133854819626
H          -1.91686825260656    0.35222848368183    0.97190549449855
