    26
        -50.45475618  Gyration_radius:  2.5882396976 Dipole_moment: 6.604
 S          -2.09334151987329    0.70649155896748   -1.43742242550440
O          -1.73866777676620    2.11474346619887   -1.29199454970286
O          -3.16476627834564    0.42255436027527   -2.33687965187373
O          -0.76804604294849    0.04091998146838   -2.14038889594552
O          -2.13923949072751    0.05342662236983   -0.14153660832926
H          -1.75628859281417   -1.39382682225852    0.35828232225217
H          -0.94346729677299    0.22164703993633   -3.05855712732006
O          -1.40734178317101   -2.23773260219186    0.75137827002661
H          -2.17496041506727   -2.77813816849796    0.94089236101325
O           2.39345909573596   -0.92319006542827    0.58186885591402
H           3.14523009575211   -1.51137812173368    0.66061039674868
O           2.47021392526360    1.73001915384065    0.06547653577239
H           2.50142529637468    0.75656145221674    0.17253414722651
H           3.18944905257787    2.08630787111901    0.58872478743363
O           0.12355291034888   -0.33457279104363    2.09021736160580
H          -0.48097054675987   -1.03777918491985    1.80228147059964
H           0.99215537120502   -0.57708150517294    1.73038745757889
H          -0.25631512281696    1.02869624065017    1.24045635069727
O           0.66740046691944   -2.04163939981840   -1.00643411622072
H           1.77396195198160   -1.35581781767322   -0.07680626623279
H          -0.02551557063025   -2.34241484279544   -0.39137380860910
H           0.24962996279473   -1.32698696334618   -1.51185194002205
N          -0.16405354949086    1.95454080191577    0.73659858303681
H           0.81861493542638    2.02339484133872    0.39891938549172
H          -0.37315013555446    2.71350520575103    1.37733629432968
H          -0.83896892260071    2.00774967883305   -0.10271920984694
