    26
        -50.45475617  Gyration_radius:  2.58833344565 Dipole_moment: 6.614
 S          -1.39179935905306   -0.93614762223456   -2.03402815104693
O          -2.18359508593125    0.28919097978314   -2.07686019924408
O          -1.60392722887310   -1.85374818309962   -3.10666053136429
O           0.15049672304452   -0.41074176945996   -2.23048836462335
O          -1.38030551240736   -1.49189555070698   -0.69284840288957
H          -0.28697327533157   -2.24786730148397    0.15770929589709
H           0.20153299086670   -0.36058450882943   -3.17985450270832
O           2.00631956591761    1.04532712617098    1.34401036201304
H           2.87571999636985    1.17080316863913    1.72569915506684
O           0.39947489744438   -2.60386301009757    0.78271791300817
H           0.21540622031275   -3.53942259202656    0.87244713715270
O           0.38318464161965    2.97039336729296    0.35790568033870
H           0.43778595639396    3.70862954043049    0.96622167486953
H           1.04332466590404    2.31115580535792    0.65736665746293
O          -0.34954846245223   -0.25395064737887    2.07563351431944
H          -1.27013098791399    0.46630022536997    0.91085596115999
H          -0.16276697387999   -1.16078652959312    1.78276404771640
H           0.49512632905960    0.21968504839256    2.00515438552066
O           2.16487444342412   -0.88676800626375   -0.38661847016821
H           1.55936632914138   -0.66331896587221   -1.11056768968133
H           2.11308700258270    0.33491602165211    0.64496696117737
H           1.72956335409515   -1.62532414132016    0.07587188024839
N          -1.69224972651029    1.20183938375677    0.27801057603976
H          -1.90162896701595    0.79801527286631   -0.69977190118604
H          -0.99628250495929    1.97197909819382    0.19543944115529
H          -2.55605504190872    1.54618381052306    0.68492354946865
