    26
        -50.45475610  Gyration_radius:  2.58837995296 Dipole_moment: 6.611
 S          -0.69530828132252    0.11699602706927    2.54035775229474
O          -1.29266664179568    1.43247422621944    2.33328959282607
O          -0.92029616107842   -0.47608719275831    3.81916183032666
O          -1.49971249631000   -0.84708017106181    1.48359689617482
O           0.66678570215866    0.08816001800258    2.03872070524131
H           1.53839433442168   -1.01790770659556    1.32643835933443
H          -2.26975314331780   -1.06981783366281    1.99725939055414
O           2.08356120069974   -1.62460522924999    0.75788473318560
H           2.75725023679629   -1.99041072437551    1.33194601684349
O          -0.03688652048215   -0.69564706576201   -2.53743773424463
H          -0.01069267383494   -1.22783880835163   -3.33327224361218
O          -1.59664877939486    1.46877480498663   -2.09652129670716
H          -1.58131969417829    1.98195391443898   -2.90545437027766
H          -1.11501687876980    0.63625013022460   -2.28364999710923
O           1.82252072451520    0.59220900982991   -0.90638820466448
H           2.10344450610677   -0.13693223016570   -0.32974367943404
H           1.29883270972208    0.17751181523215   -1.61098694108601
H           0.69538365830355    1.47254067489905   -0.08319628844946
O          -0.23448712179175   -2.30446001660641   -0.50620033373891
H           0.66058015326595   -2.27756311934067   -0.12284001419940
H          -0.79284966321670   -1.85826789800634    0.14940841167918
H          -0.16822053822640   -1.33944479746156   -1.78047291021484
N          -0.14143498405684    2.08517847004217    0.12688931502325
H          -0.60325885310700    1.80400912266102    1.05999462109396
H          -0.82036109088331    1.95478768832217   -0.65183491216801
H           0.15216029582934    3.05521687138361    0.18305132127529
