    26
        -50.45106535  Gyration_radius:  2.37011837679 Dipole_moment: 7.545
 S           0.60734774472181    1.18972568539494    1.46653112343661
O           1.95719016797768    1.54635500898868    1.13854019600833
O          -0.22383701489047    2.13579842124789    2.15879407498805
O          -0.15361288180641    0.91357123573046    0.08570097669357
O           0.51504080728354   -0.14767701640984    2.11707040538503
H           0.78770545835470   -1.47080464338514    1.26423178740764
H           0.03021622457888    1.61739270306062   -0.57374435175580
O           0.86712035317086   -2.27083391009531    0.68198046322276
H           1.22090438630540   -2.97078227170670    1.23203526030555
O           0.19848858528910   -0.27764307291923   -2.49150380559058
H           0.48528488109903   -0.79526819116045   -3.24549721394560
O          -0.04445983791820    2.39595650306261   -2.09846397874524
H          -0.93424741704725    2.68357775037695   -2.30994703649307
H           0.06191777595981    1.50312753996814   -2.48012972041926
O           2.24341250135754   -0.33156430307732   -0.82139980823774
H           0.97520200386435   -0.26032893092589   -1.86568213348671
H           2.26597317738562    0.39652584348982   -0.17088715288301
H           1.98195681762249   -1.12216609579514   -0.32670229126015
O          -1.48066348621954   -1.46327439421579   -0.54572817029857
H          -1.91240161301351   -0.58112612017968    0.69075068507223
H          -1.07006128740080   -0.90295180378026   -1.22928857426868
H          -0.72425034654501   -1.94851503300130   -0.17010669243575
N          -1.96831033191655   -0.08964505981627    1.65005028153390
H          -0.96332360809028   -0.21975301283934    2.04472349808656
H          -2.70029657121749   -0.45560906705019    2.25040713541079
H          -2.02229647890648    0.92591222501381    1.54826505223695
