    26
        -50.45475615  Gyration_radius:  2.58844259381 Dipole_moment: 6.603
 S          -0.71597836397522   -1.66935661116012    1.90994831163377
O          -1.24192836329196   -0.56191143999633    2.70175103270725
O          -0.98350029170590   -2.97826808874879    2.41283472616505
O          -1.55932470205794   -1.57958475141892    0.50496220806829
O           0.64752068936391   -1.39764406843987    1.49157479684265
H           1.46679531097460   -1.72371351910144    0.18252075313827
H          -2.34465527770281   -2.06500663841001    0.73751448356001
O          -0.04702158272363    1.28915454764576   -2.29178615816393
H          -0.03808893991762    1.46880344552039   -3.23248914395341
O           1.98501103839844   -1.78133646661861   -0.66397385401208
H           2.62999500985664   -2.47689092214758   -0.53224122510895
O          -1.49122217783190    2.59115668959438   -0.41237448809050
H          -1.43980723449712    3.52283728792867   -0.62993274108213
H          -1.05398263747718    2.10807951680459   -1.14413224828058
O          -0.35258552157615   -1.27155236413859   -1.97146155744827
H          -0.89345175508621   -1.39067343766900   -1.17526247390657
H          -0.22121843339308    0.30618925366633   -2.20148785035100
H           0.53865251121242   -1.56196204613883   -1.70646972541199
O           1.86131876097550    0.97506552533142   -0.28368311787227
H           2.09759427430473    0.03966325834359   -0.39341729289271
H           1.32265282047260    1.19846938813794   -1.06003435726482
H           0.77420508659038    1.07304418937568    0.95474673161347
N          -0.03064709975961    1.39941948696307    1.55904748228121
H          -0.70615497820553    1.88631208149883    0.93372533554818
H           0.31419978619281    2.03429927137565    2.27200872428878
H          -0.51837795902296    0.56540642177899    2.03811164805543
