    26
        -50.45322690  Gyration_radius:  2.51794741087 Dipole_moment: 4.037
 S           0.18617272152995    0.63923348731753    0.92127649078240
O           1.48338137344445    1.25718474896346    1.02033084929643
O          -0.33028739220251    0.27983343482492    2.35296898588066
O          -0.84169661663541    1.46138205075213    0.31699665090859
O           0.28232060046168   -0.65789384346958    0.20060044355129
O          -2.77513189512022    0.89233952008485   -1.43199711901907
H          -3.34606647208114    0.51764983090557   -0.74462213427359
H          -2.12393738530581    1.42064555061235   -0.92813510033698
O          -2.94252656737071   -0.08135141283726    1.11214164982339
H          -2.15776662289411    0.48712264582088    1.04781994390942
H          -2.88675477307796   -0.49844965036389    1.97246369663396
O           0.74533115808585    0.04679439242770   -3.35074013075704
H           1.12028401386121   -0.53015432381659   -4.01874620903495
H           1.43677502200287    0.14278089581850   -2.64282501659044
O           2.36885868877138    0.03462434001927   -1.28635470975911
H           1.71471732820592   -0.40535518776959   -0.70782882644459
H           2.55337520331373    0.85424821340439   -0.81391700533630
O          -1.09350075578131   -0.91617650040176   -1.86663820225176
H          -0.57492570405170   -0.88039922959440   -0.95818023140381
H          -1.86397732458914   -0.19765481975227   -1.76639099340090
H          -0.42349984912804   -0.54148851671878   -2.54885175874852
N           1.99937853644667   -0.75644764298148    2.90471294110399
H           0.45203428234951   -0.18489732577123    2.76268488082724
H           2.29360952190275   -0.01560780132570    2.27144468246620
H           2.57222150068982   -0.72400482095669    3.73804198882058
H           2.15161139713221   -1.64395803521873    2.44374423335147
