    26
        -50.44703796  Gyration_radius:  2.47153435509 Dipole_moment: 4.902
 S          -0.53355394671915    1.98823144254160    0.24302048502465
O           0.70445774813257    2.00300235712774   -0.48910299562597
O          -1.18050023809908    3.21516467752451    0.51251181134638
O          -1.53076562109776    1.06149877485272   -0.52498098492961
O          -0.31583633877253    1.23520768833070    1.58407200109681
H           0.35479536885138    0.49543787044839    1.48751571378464
H          -1.03385752917068    0.35730591076030   -1.03784237529299
O           1.28842589201994   -0.78223973212548    1.45935393882530
H           1.48514920446604   -1.08506151661183    2.34748320061291
O          -0.34998074517981   -0.78043432311794   -1.89695610889542
H          -0.83668622405730   -0.93419774560145   -2.70897384002261
O           3.06427808970567    0.55140160448519   -0.24368323850971
H           2.66739081681982   -0.10073461237842    0.34902968021309
H           2.48047081205031    1.32097827264946   -0.18257344290435
O           1.76997987728539    0.49822748959654   -2.58443603793833
H           0.52681964271190   -0.35600443266099   -2.17546085311087
H           1.44309703200735    1.37518811753955   -2.34624588433981
H           2.44862279502884    0.32113224307685   -1.89640165517760
O          -0.49423940812964   -2.30986537875593    0.42659520612948
H           0.65851314193411   -1.46408021894482    1.05645852850774
H          -1.30468153590567   -1.91039509696325    0.82828408829221
H          -0.46993188703720   -1.99490230306303   -0.48885527675555
N          -2.54158456914416   -0.87897481765971    1.48735606039489
H          -3.45581285264735   -1.25270095936992    1.70967673058867
H          -2.65598594409030   -0.16687867379614    0.77297364434993
H          -2.18858358095801   -0.40630663799545    2.31118160428994
