    26
        -50.47229306  Gyration_radius:  2.48039319845 Dipole_moment: 1.993
 S           0.98584540708494    1.37352331909255    1.52814710950035
O           1.00544840208268    1.42146923106734    0.06932568074759
O          -0.36706189208955    1.33952682974036    2.04495233196773
O           1.84053187767327    0.32203489534795    2.04451066504715
O           1.62238680538793    2.73365043706214    2.03465311802350
H           2.55154925170966    2.53797804171877    1.97774732673227
H           1.17814316544191   -1.07281531270117    1.62329833166091
O           0.80865402898300   -1.92812143846653    1.28444729105638
H           0.92610258920595   -2.56348939353716    1.99240993839674
O          -0.30389388658373   -1.06377195921226   -2.49731655108254
H          -0.11917227693407   -1.46373908293889   -3.34723369318455
O          -0.91638661731302    1.53947897425758   -1.81150631398261
H          -0.13237429466736    1.68666505814592   -1.24782846461383
H          -0.74800489005380    0.68815536412478   -2.25438781101677
O           1.86155972137430   -0.82630695115509   -1.06754764195681
H           1.68575046623260    0.05450816818867   -0.67542042635675
H           1.73654540438911   -1.44661559740872   -0.33625975737683
H           0.57304177960368   -0.99225693675926   -2.02083688351530
O          -1.51897108101103   -1.85921603421470   -0.15800800967704
H          -2.06250214235939   -0.40020879275192    0.18550452925135
H          -1.18527864937207   -1.73128397765528   -1.06428961443490
H          -0.72378511465010   -1.96322160231408    0.39823477997286
N          -2.18721369677440    0.64877327868605    0.30355252630566
H          -3.14262982261597    0.89755259955124    0.53090728841021
H          -1.84967818543619    1.10338271845972   -0.59873497151997
H          -1.51860635931263    0.96434814364500    1.06167924166635
