    26
        -50.44982204  Gyration_radius:  2.46830324352 Dipole_moment: 4.177
 S           1.55075269761668    1.41047219607547    0.25986448091370
O           0.75984757807460    0.83537447666054    1.32892081511767
O           2.88123545596572    1.76551797447464    0.59861869957993
O           1.56036120841506    0.36112717903442   -0.91126798159300
O           0.80137251932577    2.56294789729612   -0.38212754673085
H          -0.16817863260161    2.21973089454389   -0.55680511169291
H           1.82058278004785   -0.53149970982724   -0.54875859253628
O           1.99547951500517   -2.03900635419993   -0.02066200132321
H           2.70879949511166   -2.10401896126963    0.61643122156541
O          -1.51035295164718   -1.06822340022411   -1.17600274806384
H          -2.29698945496708   -1.39081930142573   -1.61825810096928
O          -1.50798815691837    1.63959128620025   -0.67483890195318
H          -1.82660240278029    1.66646337050187    0.26571709750383
H          -1.46441416488667    0.69250926975800   -0.90617124477197
O          -0.24178696685443   -1.63644671945504    1.21477694840763
H           0.05228275693019   -0.72956855694899    1.42925335782257
H          -0.86561220769620   -1.52802574841547    0.47802742677837
H           1.13932180672117   -2.05398107137653    0.50566888252700
O           0.66666506479427   -1.75441073724657   -2.54507185452324
H          -0.74157361754617   -1.33913730754879   -1.73571421348307
H           1.07693889542796   -0.88803857671465   -2.63756348175169
H           1.19848372098549   -2.22433202330585   -1.89029512733175
N          -1.96644137090837    1.55702355021422    1.96410346441782
H          -0.97231672756262    1.36402159894437    2.06918509895342
H          -2.47712318595508    0.80270463219469    2.40547966233962
H          -2.17274363404662    2.41002413205858    2.46748971078661
