    26
        -50.44541503  Gyration_radius:  2.491465039 Dipole_moment: 6.416
 S          -1.36781507394021    0.19109904225076    2.07797662209094
O          -2.06202596924753   -0.54389551968554    1.05842768241881
O          -1.68425567582189   -0.07880255638512    3.43075188000346
O           0.17919476473862   -0.03879099616960    1.83891445450075
O          -1.47252643933660    1.70141688378537    1.80072208915521
H          -1.29186890969157    1.81135542483646    0.81832395125119
H           0.33962261421706   -0.88557506213298    1.33714395625441
O           0.87483901263942   -2.09373414023120    0.40653703299169
H           1.60735736853511   -2.56041597781182    0.81197312609514
O          -0.83000233905286   -0.22556875638637   -2.34731351063450
H          -1.33036270358425   -0.18528969880357   -3.16283823197607
O          -0.75367702444356    1.87769183812408   -0.65674554131789
H           0.20694071377182    1.92702078707505   -0.56376569937347
H          -0.93107994699266    1.11188838757505   -1.24194573491058
O           1.72653363989221   -0.42957956825965   -1.40970908371356
H           1.26041254358338   -1.53276820395044   -0.32908361872923
H           0.91108281638942   -0.32416920475641   -1.93105191467633
H           1.85677067161382    0.40437393800819   -0.92746861090550
O          -1.60405249926411   -2.26159054089807   -0.92082750753802
H          -0.78349991039846   -2.59462024277730   -0.53556129565976
H          -2.00471425463677   -1.73306069524151   -0.20623361654341
H          -1.16477711734001   -1.02893963945522   -1.85102284638494
N           1.98523340651238    1.78904273521655    0.36884844496306
H           1.50807633273324    1.30182628571008    1.12589599028384
H           1.84617740905197    2.78224573770256    0.52204954166758
H           2.97841656006624    1.61883974274659    0.48600241072988
