    26
        -50.45169187  Gyration_radius:  2.58341825928 Dipole_moment: 3.488
 S          -0.00075606181823    1.08378050041639   -0.61285067556246
O          -0.83876553275928    0.26139812337246    0.28650177162256
O          -0.70744122080548    1.40652059989736   -1.82285439068994
O           0.28513101426207    2.40700137878438    0.19561553152519
O           1.30785058762681    0.47786908545654   -0.80251379870165
O           2.39644638271886    0.86833645931891    1.52599134812559
H           2.16848878217889    1.79027096812236    1.67381571267853
H           2.18407800940519    0.70963550867718    0.57458453706052
O           0.77772685883170   -3.02616620072301    1.38485261099042
H           0.40149389307633   -3.07081987943676    0.46587127643095
H           0.25312195479543   -3.63238860235251    1.91165598269773
O          -0.29560320290199   -3.27206243874000   -1.00434289003432
H          -0.26479707130663   -2.45015284785470   -1.54680969554269
H           0.13087372063875   -3.94316318128981   -1.54094104101480
O           0.08983726723381   -1.14393159088321   -2.56397959824708
H          -0.54884338635180   -0.42724526885142   -2.66213727350409
H           0.82019926913818   -0.72380274409586   -2.08334154462959
O           0.43261962037955   -0.62552106688970    2.17467258271552
H           0.62689890398409   -1.59353715492227    1.89139632647206
H           1.29604228583053   -0.08908971445684    2.06147374051804
H          -0.20223201828849   -0.23228612202191    1.35817075257146
N          -2.19541395905208    3.13341208965979   -0.14613717233574
H          -2.64333521476658    4.01163403917535   -0.37478518253618
H          -2.06309305015457    2.59834020878000   -1.00191028807996
H          -0.59711409930072    2.87795910159501    0.20279008149167
H          -2.81341372260184    2.60400875927018    0.45521129597233
