    26
        -50.46151608  Gyration_radius:  2.63571830539 Dipole_moment: 5.365
 S          -0.85969427988120    0.64505910094777    2.40916820608030
O          -2.19132930769211    0.17048625359476    2.03459770800148
O          -0.05359356912633   -0.30805000879322    3.10799833454452
O          -0.19359933503198    1.21386571964318    1.22539066325458
O          -1.10412259630582    1.87191783004052    3.38765246448057
H          -1.70619274301079    2.42442015720689    2.89857050252940
H           0.92511091459389    0.07021990182813    0.97571335363859
O           1.46428392736695   -0.75727488724801    0.96859957095910
H           1.36263180656554   -1.05402698158407    1.88269012411766
O           1.07409542866900    0.05311590165749   -2.56906810199043
H           1.33972044662928    0.30553783869072   -3.45404472089100
O          -0.90496048279468    1.56525530681571   -1.32826978718687
H          -0.17735620580508    1.14320602165522   -1.81913766578555
H          -0.57882539872123    1.65371227387137   -0.41048720505204
O           3.21205716029796   -0.13917356919196   -0.98565216603792
H           2.71090465902705   -0.29059150092417   -0.15958733519302
H           3.78038883117581   -0.90347292537594   -1.09573651890849
H           1.89159159845094    0.06710132657232   -2.01565180060059
O          -0.00934397641715   -1.95501569219776   -0.95191787601759
H           0.55106200581058   -1.69053758513848   -0.19181641954645
H          -1.43550818270829   -1.26431192908778   -0.61568247886807
H           0.32145058901225   -1.42218346831481   -1.69193024170523
N          -2.20001733947787   -0.54988284434481   -0.45453129044426
H          -1.86876757095083    0.33904053651490   -0.93350970996446
H          -2.25309559427786   -0.31853350905002    0.58778710814299
H          -3.09689080543176   -0.86988328776833   -0.80114472758419
