    26
        -50.46151525  Gyration_radius:  2.63580505889 Dipole_moment: 5.374
 S          -2.61543638728275    0.30581298831194    0.17354412047758
O          -2.72547567842309   -0.04192716617886   -1.24263445955497
O          -2.82635045948651   -0.78094266924910    1.07963598281159
O          -1.34738812619061    1.01855321650395    0.40379165883944
O          -3.75628594206405    1.37777585983378    0.44062182101529
H          -3.59567812071490    2.03910323428178   -0.22555084133773
H          -0.54640812225065   -0.12577361665118    1.22290337090393
O          -0.22985454181272   -0.96731779745083    1.63158780958202
H          -1.06823285654044   -1.39605708073344    1.84906528629852
O           2.75639448087135    0.39545237950163    0.03639329169515
H           3.63750109861919    0.76625212462986   -0.02285279089416
O           0.67323736606617    1.79393697832323   -1.16723102143533
H          -0.05191148388584    1.72356126909412   -0.51483713861057
H           1.45427888778573    1.41730892824983   -0.72386256337923
O           1.10939610897825   -1.78188711968953   -0.56817728119569
H           0.16763565838783   -1.08235539872301   -1.68549475792426
H           1.84736016496142   -1.15794447495381   -0.48390762866793
H           0.59655746430971   -1.66567317814357    0.25955240140439
O           2.15348361540754   -0.14380429553310    2.57807845169028
H           2.56274478888673    0.28381189059099    0.99810290105549
H           1.22368205305272   -0.39521801759011    2.40841143304950
H           2.56692860570612   -0.90991625197849    2.97983660889092
N          -0.36257214449461   -0.36471671166066   -2.25527142595977
H           0.09267893889956    0.57009180807935   -2.03633989978238
H          -1.36523108233145   -0.29526294945009   -1.89055073195061
H          -0.35105429634893   -0.58286395946691   -3.24481459704890
