    26
        -50.45060088  Gyration_radius:  2.56269061504 Dipole_moment: 6.187
 S           1.62731843735118   -1.07849406925791   -1.08973184583173
O           0.78503362628133   -0.51673282544475   -2.12319329813359
O           2.78037105484920   -1.78100951309073   -1.51080353101960
O           2.00507083395489    0.10493998361289   -0.13052712110436
O           0.78719399942185   -1.96679481746838   -0.16466184427771
H          -0.06022646416209   -1.46826936352289    0.14517051507973
H           2.06700576495960    0.91431509093691   -0.74094346566328
O          -1.23712091679952   -0.75886157062829    0.74951172544994
H          -1.40524988551115   -1.37757523352954    1.50229564669577
O          -0.56362657554698    2.74450744804348   -0.74437610734322
H          -1.10380149901837    3.51102308343418   -0.93888175939421
O           1.79343157195917    1.97129271569041   -1.82936349132326
H           1.45622264872041    1.30783582763474   -2.44888304723616
H           1.00410160822033    2.43421180674713   -1.47783792030906
O           0.12153618941049    1.35465020881098    1.53969243430838
H          -0.82100646197716    0.04966144459901    1.14910901798280
H           0.98224611982870    1.01037339081773    1.26645172816862
H          -0.11687852699023    2.02073874231252    0.87156513841004
O          -1.63156492544164    0.54350522321422   -1.65407198971359
H          -0.82850032226173    0.10893792453976   -2.00119145699018
H          -1.86703595747650    0.02870253403885   -0.86938466772268
H          -1.04682287501930    1.95164412980465   -1.11754263724777
N          -1.24479927044544   -2.57797404276396    2.73410018730812
H          -0.98618950545056   -2.20715823852581    3.63992402286495
H          -0.46517007982562   -3.12163525729603    2.38268681460775
H          -2.03153858901751   -3.20183461273499    2.86088695242274
