    26
        -50.46011217  Gyration_radius:  2.39814189659 Dipole_moment: 9.010
 S          -0.99805030111008   -1.46524051429560   -0.83372146756438
O          -2.38769360097044   -1.14725880871813   -0.48951491514111
O          -0.78549439891651   -2.60985722425634   -1.65315349216835
O          -0.50973912661285   -0.20921033996157   -1.71408695826700
O          -0.17374669410103   -1.42123491277191    0.37508585384869
H           1.19104716743845   -2.29280138582905   -0.16452106572663
H          -0.71895664773294    0.60854759029612   -1.22733453875245
O           1.66388347337501    1.57142898090124    0.60879551172939
H           2.43908438824381    2.11845393638935    0.74254413299581
O           1.90421047105629   -2.61042820810932   -0.75016979016822
H           1.42480264379477   -3.05015634670578   -1.45976406907507
O          -0.68657724348520    2.20402552794775   -0.45764429387490
H           0.18520915276442    2.05376680183794   -0.01708465209929
H          -0.52758028807000    2.82206575539765   -1.17311685289034
O           2.22147206007121   -0.03064749089359   -1.35413759930005
H           1.35464233692374   -0.06122369221123   -1.78623740019720
H           1.92439028952118    0.89584858518284   -0.09180696978743
H           2.37995560807865   -0.96856281801171   -1.10308965138364
O           0.10344970814567    0.16472715301028    2.42707463431636
H          -1.32137333538580    0.48630456236762    1.85891609177587
H           0.13492383476454   -0.63798444783041    1.86734977545619
H           0.74697851244168    0.75595957351101    2.00257975766891
N          -2.19826932923117    0.67770688661295    1.27001772795755
H          -2.32624944163240   -0.15756466501196    0.56078725038537
H          -2.01620749292402    1.51740764030631    0.71357840608308
H          -3.02411174638217    0.78592783088384    1.84865456419039
