    26
        -50.46011217  Gyration_radius:  2.39818059059 Dipole_moment: 9.011
 S           0.15851491174764    0.30165573476159    1.92905488735262
O          -0.36301351807553    1.66313724145970    2.08726474525652
O           0.54220835633907   -0.38086128762648    3.11802904440602
O          -1.08343435070044   -0.53286125244690    1.33557931223457
O           1.16528340355562    0.28531306981255    0.86656884374092
H           1.94981656698068   -1.18855894052226    1.22305613384359
H          -1.43948149853808   -0.05136975530218    0.56694799756312
O           2.07725151711886   -2.12042890259566    1.48365397306971
H           1.77768021642071   -2.13470527974060    2.39832281147295
O          -0.12854269744491   -0.97487957047418   -2.15445867568274
H          -0.14972716126317   -1.52109354360055   -2.94137801338033
O          -2.08185844386548    0.42102459608287   -1.01526863445086
H          -2.89462978412653   -0.07809240761017   -1.11250105282197
H          -1.38925739592114   -0.06805310782901   -1.52308796179676
O           1.40076845123744    1.26217672711630   -1.54031810791239
H           0.96087952821604    0.51979149403153   -1.98668831742451
H           0.30775145593108    2.14901761319793   -0.85110898596921
H           1.63569759566009    0.88922289720104   -0.66601091397386
O           0.00967955210067   -2.59736588457535   -0.13498797826298
H          -0.54843341106469   -2.11598488670236    0.49419432140937
H           0.01625834169557   -1.60989835309925   -1.38566340716935
H           0.88082386893548   -2.63448333911881    0.32065965748326
N          -0.50614437356921    2.56230725468251   -0.28616041656478
H          -0.39725233742939    2.23814464330043    0.76271019660573
H          -1.36972836134163    2.14252975667864   -0.64093961716002
H          -0.53111044259497    3.57431549293489   -0.34746984183931
