    26
        -50.44862208  Gyration_radius:  2.41654878724 Dipole_moment: 4.693
 S           0.76862924727777    1.28349456244524    1.44010091702062
O           2.04567061396192    1.57812423629693    0.64491675011288
O           0.42964582992298    2.38889238519297    2.25933527891428
O          -0.30918640291236    1.06117716728669    0.34033680565681
O           0.87914820147178    0.00445163279421    2.10396222252865
H           1.08423554982711   -1.35168125586736    1.21974233551762
H          -0.32568295440318    1.77101243565404   -0.35961439014033
O           1.25073907855182   -2.10273489287675    0.59945637552936
H           1.74897364155352   -2.75494597524385    1.09413693350743
O          -0.29530535081951   -0.09126835339581   -2.48040871931078
H          -0.39131032935114   -0.61252628086635   -3.27880026297776
O          -0.51398633994257    2.50395715157074   -1.77854161937784
H          -1.42665009895152    2.77912080947131   -1.88816877572009
H          -0.41782373009084    1.64939582990259   -2.24464786251895
O           2.09047190167293   -0.21514047081360   -1.14379712383363
H           1.29938647494348   -0.07780236070996   -1.70278578638850
H           2.14309380691171    0.87617118540109   -0.09575348416746
H           1.90679727837133   -1.02243011697994   -0.62554695810632
O          -1.23890056479028   -1.64296870855854   -0.61569742858506
H          -1.64237895339214   -1.21658125344252    0.17299268051344
H          -0.73170843342914   -0.62332807391629   -1.74858945339707
H          -0.41820191932191   -2.02773213736925   -0.27588553747988
N          -1.99372697901013   -0.66595597221553    1.84433666123127
H          -2.39666371960929   -1.25357738924469    2.56432352868758
H          -2.50515016150519    0.20730237102681    1.83764036688275
H          -1.04011566692447   -0.44442651553808    2.11695656589252
