    26
        -50.45007670  Gyration_radius:  2.50600614252 Dipole_moment: 4.974
 S          -0.05895305019412    0.78957243174953    2.32033191513543
O           1.31283584920586    0.85022349053039    1.86498877121327
O          -0.40464601211714    1.58290305744253    3.43820270852666
O          -0.95846458232824    1.12519565942844    1.08975253863283
O          -0.44474248935584   -0.67786079787665    2.60193814008562
H          -0.20074374168094   -1.25793450610969    1.82271699273008
H          -0.37328583568161    1.67143318481213    0.45667921320802
O           0.27919269197017   -2.20019259582225    0.63357598032336
H           0.44997673093022   -3.08051787411113    0.97331776028526
O           1.38232055815020    0.33281454554806   -2.00448532847334
H           1.63503123192949    0.42530612212900   -2.92350636344881
O           0.75377153179467    2.32663525926011   -0.32736182361460
H           1.39742517831165    2.18598075322221    0.38071566380444
H           0.98746856360475    1.68119531341892   -1.03236503393736
O           2.45814397151863   -0.90949186415855    0.20425826391011
H           2.29083347783255   -0.47251465895641   -0.64933852277730
H           2.25590759571421   -0.24106909890598    0.88646203685100
H           1.18181713207036   -1.78848004690686    0.43348188269622
O          -0.67026736477387   -1.24176140388072   -1.83976798289639
H          -1.48304609615831   -0.71416213253155   -1.64786617981545
H           0.57722180108626   -0.26902022469092   -1.99224874442852
H          -0.48436017029119   -1.73148260271007   -1.02600263228248
N          -2.79705674821297    0.23932436859604   -1.04977982531852
H          -3.65083495978212   -0.25254731708818   -0.81787278951302
H          -3.04633406502194    1.04393029193683   -1.61096158427495
H          -2.38921116850016    0.58252064568030   -0.18486503659352
