    26
        -50.44809720  Gyration_radius:  2.47100519547 Dipole_moment: 6.460
 S          -1.28868351792738    0.43121220518662    0.89950076099477
O           0.06546103044914    0.03213638613702    1.52835128072324
O          -2.05273061330289    1.15046300562852    1.84678810072340
O          -0.83634702727775    1.37977997693810   -0.26358297323136
O          -1.88540445840523   -0.69758711655323    0.23790385543216
H          -1.17757301227155   -1.36250987897168   -1.06127976242288
H          -0.07064948847833    1.93847868635450    0.07907865094472
O          -0.60742081453164   -1.74912948276580   -1.77120403934973
H          -1.02352495741431   -2.57358679329935   -2.02882406335476
O           2.44731409436933    0.86571434884739   -1.37211642055351
H           3.20482003293777    1.07605120568554   -1.91983246790214
O           1.34863318400880    2.39880800758721    0.58577170343659
H           1.44696812821346    1.92528805822251    1.41733083241121
H           1.90778913213269    1.93690147647397   -0.07276215361923
O           1.45457601559367   -1.31938309328440   -0.08202599359382
H           0.81716583205519   -1.64170023668237   -0.75041198910155
H           1.98969227205934   -0.63264087324618   -0.52214028037113
H           0.62512608157457   -0.58128560996475    0.91147880257056
O           0.22365625557168    0.68853611957554   -2.74684364822347
H           1.65323099256024    0.85116826102274   -1.97663580066376
H          -0.05524948423005   -0.23882574705949   -2.66961599530940
H          -0.36612343058140    1.17343913381298   -2.15421766249766
N          -2.01371393203992   -1.49511428639016    3.13229739822126
H          -1.03290233321256   -1.24598858050928    3.16713188685611
H          -2.52822160313502   -0.67420177908558    3.42875516126573
H          -2.24588838878709   -1.63602341368993    2.15710484644092
