    26
        -50.44990186  Gyration_radius:  2.69042102495 Dipole_moment: 8.236
 S           1.86874182090370    2.23254232265761    0.12725050054183
O           0.57372433700314    2.38993064449747    0.95665965224970
O           2.93674175257675    2.84167358204387    0.82782652651901
O           2.05729129048673    0.67882259461428    0.07647112576711
O           1.63090537926588    2.63681458481828   -1.23274386138662
H           0.64631964908226    1.75418542762809   -2.15091221817064
H           1.79570565853189    0.33054128973827    0.98972596636927
O          -0.88513994924844   -1.02491086836346    0.62342634921862
H          -1.37916870029930   -1.85457254290745    0.80565416770322
O          -0.05153521315534    1.21791257308903   -2.60806933042989
H          -0.20590481845168    1.64830870880952   -3.45030062659418
O           0.99229213497088   -0.08959648117494    2.25571529657301
H           0.23293266633608   -0.51146199004450    1.78325348756649
H           0.67574336767484    0.76033615602754    2.57676371531978
O          -1.41490386052887    1.44315881329160   -0.27441892243360
H          -1.11209450281528    1.36304602376022   -1.19956961315353
H          -1.41254979428105    0.53263990235577    0.09036321902541
H          -0.26352092011238    2.07797243868493    0.43847144370357
O           0.70843079897180   -1.19964285009477   -1.50483591548849
H           0.37028985091366   -0.50685277945387   -2.09487291639115
H           1.48943748306560   -0.80781451606983   -1.09313054034414
H          -0.31821661020884   -1.21673410873511   -0.16232643665989
N          -2.12888280503832   -3.42627351855879    1.02610449968412
H          -1.87137940366131   -4.02091172450378    0.24777734300848
H          -3.13950187083509   -3.38566947424406    1.06926882959985
H          -1.79575773114750   -3.86344419784289    1.87644824822446
