    26
        -50.46011218  Gyration_radius:  2.39813125929 Dipole_moment: 9.013
 S           0.64466982274978   -1.15538093202978   -1.44469991172110
O           1.42280314022754   -0.23076875146965   -2.27555045276698
O           0.62668230306575   -2.52061217662742   -1.84790168298412
O           1.39508253186752   -1.13718273885853   -0.02081487223079
O          -0.67595362154504   -0.58132208682086   -1.18179135149752
H          -1.51696239287621   -1.98308447502674   -0.68906394863489
H           1.51126126377741   -0.20990086715349    0.25503586065740
O          -1.69966167905627   -2.83803777823849   -0.25537357374474
H          -1.08181288046649   -3.43784345420382   -0.68559494758266
O          -0.87963504823546    0.83496995721233    2.03416079531201
H          -1.25903254212823    1.00301605215846    2.89777772980457
O           1.57681370711721    1.32088630967060    1.14442387812805
H           0.66735195395858    1.22522092213496    1.51917870148388
H           2.18732817841313    1.16290640315638    1.86655121212618
O          -1.62963927615777    1.74307868310543   -0.48229848962339
H          -1.57691444472667    0.83702611944833   -0.84971092586841
H          -1.53422530491750    1.60023726551524    0.47393469600685
H          -0.21644882863121    2.05281567548791   -1.08472339315777
O          -0.52668978610693   -1.72995745870608    1.87012181278143
H           0.30580198130223   -1.74462071422755    1.37434108010250
H          -0.83205043898691   -0.16776070162596    1.94765190094581
H          -1.14980091606767   -2.20655653030068    1.27644286842129
N           0.81122688787642    2.07399260192900   -1.39445713631834
H           1.05326947546659    1.09983225181377   -1.85217202346338
H           1.38395232333674    2.15863757001311   -0.55026493148870
H           0.99258359180610    2.83040884332618   -2.04520287496153
