    26
        -50.44962121  Gyration_radius:  2.52332064846 Dipole_moment: 3.569
 S           0.29691592906878   -1.32262278281030    0.00664983504881
O          -0.04410343846510   -1.69580154869932   -1.35249817604754
O           1.19474633290813   -0.18033825367806    0.06312289336581
O          -0.90258644513458   -1.06748040102849    0.81462509609639
O           1.05920344254022   -2.50904993157697    0.68276215060379
H           0.41613522298376   -3.25264932769982    0.60378655181640
H          -1.34063725753745    0.36385851359425    0.70947929814227
O           1.15156557351071    2.53379345613397   -1.63395463122120
H           0.89071222263846    3.23009743239488   -2.24052789286006
O          -1.65462220068558    1.32790059370781    0.62038493554522
H          -2.30550319420742    1.44965362888613    1.31434515872475
O           1.97992031490329    1.24881538680175    1.98847299999588
H           2.91310779343280    1.39759943939062    1.82154079664732
H           1.70171360626075    0.53730399273724    1.33490091519395
O           0.42456637699620    2.79134419359515    0.75750837994354
H           0.78453038101526    2.73234063474083   -0.22597761328089
H          -0.43649262628432    2.22646083939679    0.74014398298155
H           1.09769584684634    2.23446303425286    1.33492724338266
O          -0.69547091129653    0.75802100935064   -2.08366419820847
H          -1.32257380028196    0.94263285616472   -1.37570068771189
H           0.57602064669847    1.74461230069991   -1.85582701231771
H          -0.41371891544448   -0.17288382809222   -1.94816820508425
N          -1.10464269256201   -3.87947056042585    0.10137471174191
H          -1.60478185335861   -4.75196344012543   -0.01754755444375
H          -0.98416909434946   -3.44084598938092   -0.80743616929891
H          -1.67753127026402   -3.24579123829797    0.64727721128588
