    26
        -50.44982208  Gyration_radius:  2.46790836489 Dipole_moment: 4.176
 S           0.46620563392840    1.55073936169680    1.35619188698418
O          -0.68070052777549    0.67189951469738    1.46291038216568
O           0.99600980122753    2.02577293427785    2.58286970312969
O           1.57277721435358    0.75809335290560    0.56872077589206
O           0.16907575967574    2.68156385054046    0.38937710306652
H          -0.24328633746579    2.23739956020284   -0.45962951917429
H           1.69853051687022   -0.13674188944950    0.99212830244329
O           0.13725230009932   -1.03735196398742   -1.92282543390164
H           0.02692215914825   -1.38644466212538   -2.80852357940087
O           1.79802420508166   -1.67312085144737    1.45315213200441
H           1.81345809603064   -1.75026476698530    2.40852807825152
O          -0.87717142587076    1.49615516164695   -1.55284330901555
H          -0.45092014017361    0.62836093258735   -1.68609448669805
H          -1.77182854635237    1.29353012660631   -1.17158087915512
O          -0.63836976974260   -1.85468288342909    0.60256286762741
H          -0.82556286775341   -0.97219757889100    0.97819588020775
H          -0.53310306212087   -1.70170972153241   -0.35104136322031
H           0.86765920304115   -1.91712718440128    1.16112633438921
O           2.70044050937446   -1.11624612200146   -1.20972263949660
H           1.10458515923968   -1.07858683302937   -1.72208417055549
H           2.82290833278049   -0.19618321158944   -0.95310227053806
H           2.68214878165849   -1.61548749282520   -0.38336443920227
N          -3.06844968980760    0.83660378272456   -0.15846166265231
H          -3.53097621226482   -0.05767043213208   -0.26267844572525
H          -3.77646583485126    1.53398591816732    0.03092748853684
H          -2.45916326831715    0.77971108777147    0.65526124402816
