    26
        -50.46954182  Gyration_radius:  2.39873780281 Dipole_moment: 4.981
 S          -1.43564522556997    0.67700043844149   -0.11087267442511
O          -0.38307277113441    0.97794197593425   -1.10399830770118
O          -1.10060119556970   -0.54954326651163    0.61612876148256
O          -1.38201028734956    1.85259287554912    0.91391132764083
O          -2.73556749498622    0.61882056232373   -0.72036725799319
O          -2.40204380605204   -1.85967133632460   -1.55762796391532
H          -2.66636671776817   -0.93246209589055   -1.35356460391975
H          -2.42225238460636   -2.30383762295019   -0.70561618209310
O           1.41912557267771    2.49443127491828    0.04134619922820
H           0.76345769899030    1.99217813084640   -0.49379913010126
H           0.89644346975686    3.09579176467219    0.57713390623514
O           1.20345510561998   -1.80600993838491    0.22842949738605
H           1.82811435709836   -1.14352398318175    0.56270680074292
H           0.32629514216796   -1.46378589620535    0.50286912331688
O           2.42247574037054    0.44607690751359    1.36544999935042
H           3.30218227746633    0.64565290325319    1.68811340103238
H           2.13534192506179    1.22681754264528    0.82647694351476
O           0.01948909989137    0.61566765761528    2.71465471945279
H           0.94437152399561    0.55637090691367    2.41156217200064
H          -0.86049244130883    1.51595532450185    1.69447005384588
H          -0.42868702260172   -0.13719598288151    2.29728289167757
N           0.13330587922515   -1.32745485213710   -2.11935791360203
H          -0.84522590823714   -1.71893987617165   -2.03010430817657
H           0.00323372295915   -0.29717525375378   -1.87929085859872
H           0.72995285855349   -1.69918859243749   -1.32799456238984
H           0.53472088134109   -1.47650955827196   -3.03794199399163
