    26
        -50.47229298  Gyration_radius:  2.48034678554 Dipole_moment: 1.995
 S           2.12343584023490    0.26484862926670   -0.78410792487347
O           0.87638065716946    0.89140393181859   -1.21231906830698
O           2.34752693378765    0.43396178140054    0.63704389675310
O           2.21932559208150   -1.10946936247719   -1.23643410965374
O           3.29475142609293    1.04235087194836   -1.51568380207719
H           3.29506407672895    0.62013831378679   -2.36809558963802
H           1.10069786953769   -1.94029843757126   -0.44842354736052
O           0.35038841077872   -2.42817197536520   -0.02198826258969
H           0.68947871141625   -3.29994283745221    0.18723636816464
O          -2.71899921877020    0.18795234675264   -0.18417580073519
H          -3.61766138896775    0.13054947671466   -0.50907509167517
O          -1.00514678534601    2.33992615617929    0.05508384149437
H          -1.76135229898056    1.73526046296218   -0.05311984915692
H          -0.32415677497675    1.99953239448790   -0.55678718795502
O          -1.23601439523652   -1.07933882786344    1.75878542272538
H          -1.91498139427557   -0.70218116463754    1.17064498288937
H          -0.67589715068390   -1.63506339519038    1.18445161189845
H          -0.34343063980153    0.20448506953300    2.07141346693679
O          -1.02777192022640   -0.84369001007141   -1.87692112121196
H          -0.30383969129495   -0.18999568631176   -1.78164503339722
H          -0.69744677170502   -1.63723672403434   -1.43371257857139
H          -2.13505830798995   -0.20918828592471   -0.89298393235701
N           0.22768554998382    1.09882839267335    2.01015494747839
H           1.13867653369660    0.86013547723124    1.52580200446836
H           0.39360389924544    1.51032440737254    2.92095251930677
H          -0.29525875249804    1.75487899477114    1.35390383743514
