    26
        -50.45601883  Gyration_radius:  2.44984679325 Dipole_moment: 7.022
 S          -1.52942409112985    0.94902325097472    0.91576608197801
O          -1.51967368997719    1.20577770613942   -0.51270864287953
O          -2.63214104343112    0.10923031916333    1.33213726223364
O          -0.24905389948415    0.34214800249697    1.35892080412833
O          -1.62126166500843    2.31676213048115    1.66210035093715
H          -0.85959924900706    2.81198409689110    1.30638595379753
H          -0.57425880727324   -1.10693937042691    1.61837417458749
O           0.31625909920142   -2.51838815192933   -0.71291794338294
H           0.79186647540977   -3.27367755085972   -1.06133864035058
O           2.11700864784532    1.22037178535994   -1.44427984920789
H           2.58619108826183    1.62084083229806   -2.17690950304219
O           0.36684923253254    3.01206599763813   -0.02318252799355
H          -0.32344712152209    2.53511337845345   -0.51183757000799
H           1.18053744086018    2.53260886674793   -0.23726964807909
O           1.95790908505494   -0.81377067407920    0.36322161652687
H           2.30168728348512   -0.17838575836258   -0.28674444149452
H           1.28119635157498   -0.29901971844957    0.84130998809856
H           1.01080886250421   -1.89945181844687   -0.32873524966045
O          -0.02681100011323   -0.11076745532094   -2.27305698273455
H          -0.67497654605571    0.38206048534889   -1.73074177670672
H           1.32436659463874    0.77105512350732   -1.83444078746795
H          -0.02925218394566   -1.00942495227014   -1.91887186753788
N          -1.16324622972579   -2.00457019752032    1.46832493292056
H          -2.08153147786751   -1.51821504648378    1.34053025624290
H          -1.15578850467564   -2.64475749459986    2.25466951282022
H          -0.79421467213842   -2.43167377671676    0.59129450625155
