    26
        -50.45722701  Gyration_radius:  2.57707644498 Dipole_moment: 6.713
 S          -0.27709189613802    1.10561391481184    0.31842768371429
O           0.51811926488235    0.72669237852404    1.50976550507160
O          -0.76684119932166   -0.29253975537967   -0.21703770934820
O          -1.45472783701791    1.84825932708658    0.70849123304412
O           0.52084987440969    1.72846648683877   -0.70713044266891
O           1.01727739975513   -0.94176816211064   -3.59926459991773
H           1.60205528783250   -0.69861536085615   -2.83990114761807
H           1.46098185084641   -0.62029395727650   -4.38553376743489
O          -3.03296948077128    0.58243093559730    2.30069788849641
H          -2.52892865593628    1.10739045073219    1.61596406188453
H          -3.24268893927352    1.20860445210618    2.99631053845770
O           2.40857173179246   -0.01358042233750   -1.54210342557986
H           2.49292511009308   -0.58329904083873   -0.75898050454763
H           1.81950175040813    0.71382038332581   -1.26745806364215
O           2.45164580685323   -1.03809689996511    1.02983538490987
H           3.27686241546299   -0.69942382187817    1.38230090678218
H           1.77666568682826   -0.35303980873088    1.21467220691034
O          -1.00079074447474    0.48832851091805   -2.61187322048774
H          -0.97827710339092   -0.11093623869307   -1.19193646618670
H          -0.49936839424050    1.26713140086528   -2.33137974396404
H          -0.35588041523292   -0.09143506001447   -3.08734746152659
N          -1.04515016626019   -1.10616605906825    2.32446844955955
H          -0.29509350362700   -0.34377589859631    2.09578431075954
H          -1.94467659116159   -0.54691420872344    2.45968332356804
H          -1.12536949447592   -1.64981016541127    1.46428592138705
H          -0.79760178784166   -1.68704339092528    3.11925911837750
