    26
        -50.45601868  Gyration_radius:  2.4493598918 Dipole_moment: 7.006
 S           0.31879551657275    1.64091003955851    1.13030439517465
O          -0.37929805765874    1.98176771492374   -0.09550577403680
O          -0.51344544706656    1.76044692698226    2.30828894117269
O           0.88531862415771    0.27044589561043    1.06029231983939
O           1.54834433560770    2.59099941744922    1.27830438782680
H           2.03293153377340    2.45319628423666    0.44275304564552
H           0.00623110238363   -0.56233234129835    1.95605943933025
O          -1.78423899144805   -1.93718600797419    0.19334692597467
H          -2.20641352005211   -2.76087723552102   -0.05442066212046
O           0.97661493615653   -0.44493977493544   -2.62511747070356
H           1.02428667597655   -0.39074058082941   -3.58012182670347
O           1.99475278140846    1.89080010342513   -1.28738478282851
H           1.99802657637227    1.00563807479409   -1.68076924937792
H           1.05272814624720    2.09104720249743   -1.16480448278582
O           0.75126260836338   -1.98629486834271   -0.38611337447726
H           0.99339737492313   -1.19874385535341    0.13564006024934
H          -0.81729105378753   -2.02415266833704   -0.07047001234011
H           0.92385360753428   -1.70728581184828   -1.30054917095252
O          -1.44600633952341    0.18612216304119   -1.73716387962010
H           0.05619312084729   -0.17349269367756   -2.37728392616330
H          -1.77488734854037   -0.48773738158849   -1.12822022621946
H          -1.16267110249446    0.93137020534084   -1.16998933159338
N          -0.92908018824166   -0.77831490014833    2.46046092120263
H          -0.82881331698507   -1.32325450985465    3.30964021972370
H          -1.52536021560239   -1.24582641272108    1.74454880175331
H          -1.19523137880150    0.21843502463441    2.63827471222989
