    26
        -50.45720837  Gyration_radius:  2.51185158225 Dipole_moment: 6.176
 S          -2.14211093564677   -0.49905278713999    0.47988311275057
O          -1.58689056402434    0.83820043369602    0.78185800707900
O          -3.50820468719016   -0.44870228502941    0.07835508030874
O          -1.27698897913825   -1.12764011525957   -0.55146086668161
O          -2.00525505749756   -1.35955318932979    1.77048413672421
H          -1.05248921860329   -1.40392593041387    2.03313299161321
H          -1.31966563922443    0.06565947658875   -1.57843936850391
O           0.55211398838149   -1.62903722763408    2.40797138386031
H           0.61924107995913   -2.45070292969108    2.89672891394222
O           2.27248459513803    0.67877004364678   -0.35333427950832
H           3.16032773974438    0.96263956611133   -0.13093563871325
O           1.14445665379175    1.68508500283358   -2.54337733563577
H           1.59817455178955    1.37775868118163   -1.72238602204122
H           1.49222106548813    1.14774211078415   -3.25732892276817
O           1.20794594334609   -1.89819377398107   -0.08491380077534
H           0.89400926176479   -1.81590907707594    1.48238185544798
H           0.27999334379069   -1.72798862378100   -0.36011802731848
H           1.69499534522649   -1.08889478064547   -0.30711807200586
O           0.83457068350784    1.07335628993916    1.75953327653408
H          -0.09979682470831    1.09278807708613    1.44740292507723
H           0.89501432157929    0.26791885109259    2.28948619391820
H           1.71001204104031    0.88856064619447    0.45585172664892
N          -1.34221456445442    1.11810079527582   -1.75984430804714
H          -2.13299627338739    1.39037142845398   -2.33393733366677
H          -0.41749271396639    1.44554721764345   -2.14493617669377
H          -1.47145516669498    1.41710209949747   -0.75493945152621
