    26
        -50.45601906  Gyration_radius:  2.44945498219 Dipole_moment: 7.011
 S          -1.00075543223810    1.46697085890035    0.96095810308960
O          -1.56940474986140    1.21454137433736   -0.35026273487389
O          -1.85962958481201    1.03565480679783    2.04310981639369
O           0.33093449781834    0.82540139860512    1.09940516765224
O          -0.73982223322753    2.99968275768231    1.09895221761441
H          -0.17405934641125    3.19503542331897    0.32840123908443
H           0.10209865131028   -0.35794842983345    2.00371735882528
O          -0.07157135441689   -2.62423698904806    0.25947060413267
H           0.19598760433025   -3.52598815180502    0.07718990532190
O           1.38179813261352    0.24369122684374   -2.46548692770756
H           1.51874844968135    0.28235730688563   -3.41263641571418
O           0.40951898102352    2.69895341802942   -1.32236198452873
H           1.05006511116055    2.03265448825131   -1.61208025693522
H          -0.43527445248478    2.22101878923207   -1.30197374972274
O           1.91622248234110   -0.98383796001490   -0.08997357332974
H           0.73735022921775   -2.04972634406626    0.09140246317647
H           1.98650293181433   -0.68641569083477   -1.01229737020399
H           1.50502527768131   -0.22157214600559    0.35842316852367
O          -0.94997824128398   -0.87793059297881   -1.86647470156862
H          -0.83390593560074   -1.58226884528766   -1.21560033323097
H          -1.30975553521869   -0.11904190788813   -1.36464383984020
H           0.48719222775449   -0.16125015533425   -2.33052813963899
N          -0.51975548849979   -1.12867441035704    2.44516720154386
H          -0.55309498108614   -1.89330268581434    1.73736938030116
H          -1.39682219454820   -0.55821890282550    2.48435579062984
H          -0.20761503717922   -1.44554862679980    3.35639760103768
