    26
        -50.45720844  Gyration_radius:  2.5117766611 Dipole_moment: 6.170
 S          -2.17409725710390    0.54826810365277    0.19677990940733
O          -1.76701781477268   -0.79887893837148   -0.25842897426159
O          -3.35306291936550    0.52455008111099    0.99633665536230
O          -1.02189393343817    1.15270492330218    0.91396853065523
O          -2.41892216871331    1.41268445096781   -1.07505095644420
H          -1.59161729608052    1.43699269256257   -1.61706870162249
H          -0.77570754501932   -0.04473804433813    1.90624795170337
O          -0.17374311109791    1.62829435344403   -2.46499111420856
H          -0.24024743152399    2.45060275596265   -2.95276578703628
O           2.25510333455351   -0.73078312737986   -0.35635284519299
H           3.02618064853807   -1.03260520198498   -0.83866395055419
O           1.82897327814993   -1.72128020124866    2.07675894490662
H           2.01652587752264   -1.42099104156562    1.15542108487840
H           2.38947789714854   -1.19362071966970    2.64836103870383
O           0.23304673213617   -1.08287217612668   -1.92968731179718
H           1.46801302329714   -0.92390874966290   -0.95499479429374
H          -0.56134131197914   -1.08307364877679   -1.34674060803997
H           0.14684496747558   -0.27622413637899   -2.45425481603719
O           1.21802674121828    1.87051045524670   -0.29191996753333
H           0.41495143257715    1.71955980837286    0.25400550012991
H           1.73127413084788    1.04954446901148   -0.22730941926756
H           0.43861207475505    1.80289133177877   -1.68846272783472
N          -0.76498458861959   -1.09737284863162    2.08796375370913
H           0.22565259329463   -1.44666654801622    2.17363833833643
H          -1.20093333183782   -1.38864390795615    1.17092711898739
H          -1.34911401208312   -1.35494415533909    2.87628313738061
