    26
        -50.46060905  Gyration_radius:  2.58671806946 Dipole_moment: 5.768
 S          -0.37396023185400   -0.53979937811489   -0.24430780521847
O          -0.34717684637624   -0.96705179542315   -1.62563456603260
O          -0.18582361171920    0.89692934759803   -0.07875615611096
O          -1.61526531515313   -0.94150490672411    0.44718125083799
O           0.77513040016791   -1.25096004906728    0.52688789076996
O           1.00679125696398    1.14853192861817   -2.49725346843820
H           0.80171276789139    1.55656570996676   -1.64561345147461
H           0.44806122856507    0.35046380968388   -2.47957559102592
O           3.34080457021558   -0.13268000341902   -2.30721107579258
H           3.76211524276086   -0.13305788164363   -3.16796980172106
H           2.54489142067533    0.44475016097207   -2.39043617527720
O          -0.55444497939467   -0.72216881570169    2.91793987759212
H           0.33402901470712   -1.08290182726340    2.86502103038431
H          -0.96812310111089   -0.96449548085936    2.06821638596523
O           1.98228721138660   -2.27943327002189   -1.45357453364100
H           1.34551154827335   -1.72142714279414   -0.16463552875251
H           1.15826913900393   -2.08914292362631   -1.92813975792031
H           2.61821114154501   -1.58103449775027   -1.73351766977036
O          -0.72489269028868    1.86711895197598    2.29440765230364
H          -2.08896410934569    1.56929907286796    1.80004476168240
H          -0.55428912810868    1.04278007359307    2.80137067978685
H          -0.31153391249453    1.68649738322514    1.41860763179817
N          -2.94174179215026    1.09765721151688    1.27562662579473
H          -3.28273611040584    1.69240682536183    0.52770034905814
H          -3.68940237127204    0.84389998538649    1.91338942083339
H          -2.47946074245638    0.20875752161840    0.86023202435901
