    26
        -50.44707804  Gyration_radius:  2.51030692727 Dipole_moment: 4.736
 S          -2.00661672154594   -1.02883209155048   -0.92761157108361
O          -2.22055218373134    0.20986993207240   -0.22111782194448
O          -3.05399867805407   -1.50334893270432   -1.74921182467564
O          -0.68199054997861   -0.86322043482730   -1.74368810261782
O          -1.62317747239750   -2.13533717128213    0.08869346176063
H          -0.75469955138960   -1.89782840889780    0.51061262844563
H          -0.39214619888654    0.10512389134990   -1.61138508925862
O           0.75198409334265   -1.62357027515850    1.03132088984879
H           1.04064110915649   -2.33717048191384    1.60308240174675
O          -0.10523472435461    1.54880808185880   -1.21500510538575
H          -1.02338516933232    1.73926463487357   -0.99026318993758
O           2.72930053756368    0.85396510334819   -1.16745582065596
H           2.11918317676216    1.34547261319108   -1.72533622675359
H           2.51584363482153    1.10429600406036   -0.25916506841857
O           1.02061118100069    1.13037327071591    1.12864416022746
H           1.00827132318242    0.16384744525413    1.21946320265904
H           0.35580023305189    1.45635064809148   -0.33404308188897
H           0.23698907163671    1.43125272036051    1.65385544796463
O           1.94813872183424   -1.72615950131307   -1.24459501882558
H           1.27033017514544   -1.72381183329451    0.16784854224821
H           1.17511161738819   -1.67332716210029   -1.81984160436927
H           2.38871986464884   -0.84906348887449   -1.29888963526279
N          -1.39840791990288    1.58109609880459    2.19133504222960
H          -1.85641664119623    1.09912369037194    1.41746691261327
H          -1.80281662851296    2.50725527377246    2.25500058808195
H          -1.64148229026312    1.08557039379261    3.04028586324385
