    26
        -50.45335468  Gyration_radius:  2.50772664138 Dipole_moment: 8.513
 S          -2.42340434005507    0.04449279586980    0.45525253693613
O          -2.00165518613228    1.02924747936483   -0.57326993227638
O          -3.78938502296122   -0.33085308126834    0.35274354036554
O          -1.48130164262287   -1.10046024951522    0.40011058934527
O          -2.18899209683730    0.73042720826506    1.83916940715731
H          -1.22112808524928    0.85770689179742    1.96587104393939
H          -0.89198001189238   -1.15695577464413   -1.03971023789131
O           0.42546549943652    0.97854614206219    2.29914831657898
H           0.51037525148530    1.14291638508971    3.23936776526690
O           1.67080506561006    0.57170918381690   -1.83584638630631
H           2.11287682594069    1.13088966235027   -2.47550613817109
O           2.41465355997255   -1.64375420485865   -0.38475294834577
H           2.23835602360175   -0.83900187872720   -0.90132387062853
H           3.35096466236802   -1.64668365136932   -0.18181165427928
O           0.38693294892787    2.09430393547146   -0.20826377690247
H          -0.55480215210718    1.84215159467805   -0.34776839669630
H           0.56712941307187    1.87540872554822    0.71829489522254
H           1.22863306787158    1.19859273257485   -1.17706989136289
O           0.73912535674190   -1.52833418913783    1.79986999252157
H          -0.14505545138688   -1.56884410629421    1.38427772757323
H           1.36626592056314   -1.68235867214340    1.07025388102828
H           0.64189120449403    0.00441142327758    2.15836586008884
N          -0.74905268028603   -0.65703290517221   -1.97649914628912
H           0.23796139251986   -0.35481888567957   -2.09383219737523
H          -1.34552331961773    0.19315874347100   -1.71983474719312
H          -1.09915621335983   -1.18486529482412   -2.76723623230953
