    26
        -50.44867313  Gyration_radius:  2.53127752772 Dipole_moment: 6.584
 S           2.16348008071670   -1.02269257581738    1.00160077193236
O           1.12897635475900   -1.64814249704007    0.20622733968983
O           3.40107208443182   -1.69659530691639    1.10057079238066
O           2.34561830530284    0.42640133226859    0.43863691435834
O           1.61572431285714   -0.73714864191132    2.41299968670717
H           0.68350067068318   -0.36184453348781    2.35918145994599
H           2.16389883858353    0.33788760054158   -0.56111292560490
O          -0.79621573910788    0.17039396314252    2.26495719997876
H          -1.22724671997877    0.05552868839560    3.11368025442609
O          -0.47193446706142    1.73325656800878   -1.78397503865801
H          -0.32310901582358    2.53513891481465   -2.28753004243101
O           1.55071826170714   -0.04517022767164   -1.90970492728047
H           1.22032485166078   -0.88067562830429   -1.54656523898376
H           0.77540680657572    0.55467065176235   -1.99107353530530
O           0.20749485321051    2.21852819988461    0.72113154670597
H          -0.30472905293114    1.65657444358137    1.32344640528956
H           1.10885711901969    1.86825452198889    0.74910186478782
H          -0.29217433345616    1.96719103876148   -0.83654086380787
O          -1.52626632011156   -1.67770957646790    0.68511150869751
H          -1.90324401883230   -1.29593003354307   -0.14896300565793
H          -0.61004186130903   -1.91920750257284    0.46487565815788
H          -1.18295276348942   -0.54618748379431    1.64475937703722
N          -2.36902168528130   -0.55119621898589   -1.62183921076042
H          -1.80494373057243    0.28503334567520   -1.74664544574456
H          -3.34201724619982   -0.27309444259824   -1.63219694864695
H          -2.21117557539929   -1.15326463971638   -2.42013358719935
