    26
        -50.44364317  Gyration_radius:  2.49284517548 Dipole_moment: 5.406
 S          -1.64703628245959   -0.19759988505113   -1.63679854785074
O          -2.22925400684564    0.68787656969109   -0.66767710656855
O          -2.30409502947977   -0.37599819130915   -2.87754872764522
O          -0.16636324632376    0.27279777704668   -1.87621422622610
O          -1.40649720563423   -1.57920303243056   -0.97723487601915
H          -1.37307474968284   -1.46787865861127    0.02399377286910
H          -0.11145036631886    1.25703995850083   -1.69165578570157
O           1.50438330720239    1.82688112744430    0.90918264166208
H           2.22066413015066    2.10610939106465    1.48008549495919
O          -1.38219527382405   -1.32787967989673    1.59155088902976
H          -2.28643775597644   -1.47735103645527    1.87480634758728
O           0.25779618720741    2.74161855418931   -1.28708678527976
H           0.91979064752009    3.10105406403592   -1.88148508274526
H           0.70140698704953    2.58179561964633   -0.42735342781920
O          -1.08216249129216    1.23441632388007    1.69844871403239
H          -1.21625911796562   -0.34628764304099    1.73645961215831
H          -0.17283269559028    1.51390794189833    1.50032927011525
H          -1.58116195508239    1.31103198848419    0.86429181244292
O           2.16405513281192   -0.30647692448338   -0.41545847760463
H           1.80803905245692    0.98530172537338    0.45589821751018
H           1.91649902626289   -1.15012762201289    0.03972831647257
H           1.53704539372241   -0.23411073533297   -1.14719764779821
N           1.15068520295740   -2.58199137941235    0.61019886760317
H           1.67957480499885   -3.34734911924973    1.00852484046713
H           0.64624013625513   -2.93392570144991   -0.19543225971219
H           0.45264016791901   -2.29365143249174    1.28764414405256
