    26
        -50.44867320  Gyration_radius:  2.53129483135 Dipole_moment: 6.584
 S           2.46874718394212   -0.04676834569350    0.79513804540690
O           1.87713696106352   -0.58367844244531   -0.41145191888311
O           3.87122772980775    0.12216850144574    0.80927501867159
O           1.72816978389733    1.29906544209473    1.09543061483370
O           2.03943956529246   -0.90835539988200    1.99802248629844
H           1.06013204954675   -1.13228039609020    1.93838902255991
H           1.50424386421332    1.67930322266596    0.17587209673219
O          -0.45976005612541   -1.52491604962272    1.80435895289967
H          -0.63940174409719   -2.28431524776446    2.36146662335669
O          -1.58779432956744    1.83451313282390   -0.72162944459797
H          -1.98401372933138    2.70714192627433   -0.70607691412100
O           1.05044887119798    1.82263405320616   -1.27848518230409
H           1.29839669742410    0.90535052645712   -1.46879009808028
H           0.06913338018312    1.84314734890063   -1.21471777824135
O          -0.99193365798844    1.17695031412003    1.76530463768713
H          -1.01670781797826    0.21330643842214    1.87357774691141
H          -0.05533167185806    1.41504496783235    1.80957865023153
H          -1.45369892248342    1.57755137401031    0.22746404495003
O          -0.21179266837988   -2.28043991462965   -0.60645972353762
H          -0.44936002166597   -1.86927804168833    0.84054753573343
H          -0.84040610612821   -1.78720207169976   -1.19385181818608
H           0.64400901238404   -1.83005275050254   -0.71160973157640
N          -1.82735439789564   -0.76213936725538   -2.15114710639764
H          -1.85367173531248    0.15366752664794   -1.71109682948779
H          -2.77961724454702   -1.09494003628596   -2.23191348180776
H          -1.46024100557655   -0.64547871138817   -3.08719544903221
