    26
        -50.46919477  Gyration_radius:  2.4672248416 Dipole_moment: 3.370
 S           0.93203988239456    0.95711224551873    1.99304707851909
O           1.56568215140592   -0.05580762990959    1.15833268681320
O           1.38934253545537    1.00674852474710    3.34230947966530
O           1.31455109285388    2.37180055196047    1.33776131041621
O          -0.52805787625965    0.88873924910599    1.83309795421939
H          -0.75505283332569    1.60514576591026    0.38244867675149
H           1.98886462675785    2.65613459218187    1.94391026060306
O           0.41610787359070   -1.37870435078581   -2.27759840991784
H           0.81658257135051   -1.63403263511250   -3.10870653111265
O          -0.87675370572086    1.95871720350151   -0.53095437765968
H          -0.89238235011566    2.91236757473821   -0.44042204925947
O           0.71245204776847   -2.43706678478681    0.25074399855134
H           1.21177890415875   -1.69657710948004    0.64795409972311
H           0.70686017733760   -2.25555938236263   -0.70724937024096
O           1.47941996134213    0.79598651108655   -1.34155805941603
H           1.67983675673564    0.50830535051743   -0.42650406870732
H           0.88366982318328   -0.54162746964028   -1.98241000101019
H           0.71507365042004    1.38802541529368   -1.23896857826452
O          -2.02197164233190   -0.34556191321244   -1.57006785216977
H          -1.24693804332248   -0.75898406893313   -1.99505545522405
H          -1.92427896196632   -0.99188267787876   -0.11043718035081
H          -1.75963762389184    0.57040273026782   -1.38263805071738
N          -1.57469374640257   -1.32063144985748    0.83921626203488
H          -2.29328099889070   -1.79807355487696    1.37024196490920
H          -1.22346259333521   -0.46897544060736    1.34913267007481
H          -0.71575165915336   -1.93600124740734    0.66437353170324
