    26
        -50.46919484  Gyration_radius:  2.46724084268 Dipole_moment: 3.375
 S           0.66791230790335   -1.40629620365891   -1.82569150766087
O           0.13701480039162   -0.05394789855481   -1.94248601189405
O           0.51621581798425   -2.22153223823794   -2.98525444834222
O           2.24824759666656   -1.24211902569697   -1.59668206958343
O           0.20119204362189   -2.01560800998132   -0.57145426289704
H           1.15155773214924   -1.29212944745684    0.54320312291104
H           2.56346004329935   -1.46547608532296   -2.46483825564248
O           1.66651706148555   -0.78909535208449    1.21838564465096
H           2.51551385631882   -1.22902046849547    1.27836184228065
O          -0.57509603739503    2.48361644010451    0.87329488049185
H          -0.48061912936398    3.42456488461604    1.02176508531739
O          -2.08703158516240    1.09995215759438   -0.97132219977774
H          -1.35264268097831    0.77427456727589   -1.52819283684568
H          -1.68402529442237    1.76299941543147   -0.38094350186212
O           1.51558246322015    1.49526641827795   -0.30497006706128
H           1.80262349109309    0.79600815957253    0.30647008262818
H           1.08443455816397    1.00665360818888   -1.03684223314305
H           0.26346796064521    2.18331310484559    0.41161792363527
O          -0.54209513237119    0.28536192501891    2.50919351427008
H          -0.58119656986599    1.16966241421267    2.09831004786629
H          -1.46966597201344   -0.53822356132136    1.49981213273618
H           0.33337727692061   -0.06907595720247    2.28349308782390
N          -1.90177168261601   -0.96039453269807    0.62388463252109
H          -2.69122693297711   -1.55951504207138    0.83396241086886
H          -1.13847401424598   -1.49139762815271    0.12981752538418
H          -2.16327196844346   -0.14784163420083   -0.02289451867772
