    26
        -50.46919482  Gyration_radius:  2.46727201758 Dipole_moment: 3.372
 S          -2.37072353994609   -0.27151855189153    0.25226755397281
O          -1.70147333185002    0.35161461613689   -0.88267999523409
O          -3.72854762646852    0.11682452536011    0.44598790396565
O          -2.39443867016662   -1.84620884543493   -0.05930925490118
O          -1.51846315120395   -0.17141810444945    1.44645056662805
H          -0.39561419690077   -1.32629427936702    1.17330619649944
H          -3.30037098135710   -1.94634888234914   -0.32786217475061
O           0.32788851014622   -1.96340189723175    0.96174037345226
H          -0.00032983380866   -2.82501602233441    1.22214570920834
O           2.07743619574840    0.48494015428186   -1.64654644374334
H           2.65014740355781    0.41255243480839   -2.41007063597408
O           0.11541304556884    2.32542029597972   -1.04294686096512
H          -0.65753408843306    1.73648304925995   -1.14831207550831
H           0.86754960024830    1.82721647809949   -1.41281852774406
O           0.19248920840855   -1.29851907611992   -1.70295406329407
H           1.37846322281049   -0.22753619730580   -1.74746762223213
H           0.31128052149428   -1.77080492960568   -0.86151357965409
H          -0.58814858945386   -0.72752892547208   -1.54520583029997
O           2.37247060082692   -0.08819548363717    1.01736465647214
H           1.28509807413067    1.01228249804831    1.42253368936412
H           1.83999009440407   -0.89874931799450    1.06693783295485
H           2.46856062820320    0.10513254170083    0.06573286062972
N           0.41528364867796    1.62426259693007    1.45547789099459
H           0.44687013882571    2.29886489602551    2.21058449982107
H          -0.41104090777893    0.97886635160156    1.55260704202159
H           0.31774401430774    2.08708005495661    0.49455027832142
