    26
        -50.46862844  Gyration_radius:  2.47464463291 Dipole_moment: 4.030
 S           0.29165295621531    1.91334889425292    1.13940160873702
O          -0.93137993807051    1.57664278447144    0.39080144858294
O           0.75302661506872    0.79019157415085    1.90860019939979
O           1.28658731457100    2.52799541000953    0.28528142881790
O          -0.14291108245144    3.04414238555322    2.16652172523290
H          -0.02186856650273    3.82699683825881    1.63955429620807
H           1.85691231819128    1.26555634327444   -0.53443973107724
O           2.12175531461052    0.49810116608939   -1.09859071031078
H           3.06814815863881    0.57918855347058   -1.22946256814702
O          -1.28780210463527   -1.61779572534690   -1.78085347958261
H          -1.75205040037246   -1.93453385664287   -2.55575833218850
O           0.30160579825574   -1.83352503513640    2.00226810792973
H          -0.98164851701510   -1.35920283843311    1.37567570066215
H           0.63666296575957   -0.94077887475673    2.20866150432821
O           1.22066260850763   -2.05405174919257   -0.48910167539567
H           0.78310415413084   -2.09127272346754    1.18158998788806
H           0.41703802644155   -2.09764334802580   -1.02466629162244
H           1.60687521264509   -1.17867018225003   -0.66365525866853
O          -0.41867952472092    0.80513241210682   -2.12779542790512
H           0.54652507246830    0.73070036167980   -2.07711132890984
H          -0.97319562515503   -0.68989958165857   -1.99676613383743
H          -0.67325964093706    1.23246111649877   -1.28586696146895
N          -1.77040140682994   -0.87864972986105    0.79271710869123
H          -1.76871417903317   -1.28928250139454   -0.16040812872898
H          -1.49055127217760    0.13954087677081    0.69868407008660
H          -2.67809426761149   -0.96469253042773    1.23471881128007
