    26
        -50.46862858  Gyration_radius:  2.47484508699 Dipole_moment: 4.024
 S          -1.68904287548318   -0.80582657509805   -1.24228797596140
O          -0.74178677319443    0.22308186576073   -1.70436650288002
O          -1.00351776307957   -1.87393747033483   -0.56754370630954
O          -2.79481583004139   -0.22219997714157   -0.51163446008495
O          -2.32708476316365   -1.41271297712175   -2.56407505887806
H          -3.05962154281598   -0.82153593794945   -2.70221983333631
H          -2.12042506549766    0.12815614277357    0.90676137603336
O           1.99366470341762    1.77591561910113    0.56582698602478
H           2.48892289988305    2.58796365614282    0.67410630176286
O          -1.66606636222381    0.42866011443538    1.73189985737286
H          -2.28088746069958    0.26279211002777    2.44870045410049
O           1.40606383719737   -2.29094362155478    0.48986963934084
H           1.72865239921335   -1.20889879636181   -0.50492630834702
H           0.49150156224008   -2.42915812763202    0.17956420616938
O           0.96263715321455   -0.31203043104282    2.21836679315759
H           1.43821697038669    0.43654338198288    1.83365106615185
H           0.01796297939976   -0.11493178330544    2.09722146416885
H           1.30849371568608   -1.73023895527581    1.29479947970762
O          -0.50143599370512    2.25825267470857    0.02819349433703
H          -0.99145472783338    1.88640266242333    0.77744041676175
H           1.04555427399166    2.04376224552225    0.37668935209864
H          -0.67275210399985    1.63559247525362   -0.70610991858747
N           1.76466587391522   -0.32582511771070   -1.14662533032463
H           2.06320442004675    0.48471304295906   -0.57128422402941
H           0.76714549468621   -0.14375134354337   -1.45563383713612
H           2.37220499848495   -0.45984487702600   -1.94638373133873
