    26
        -50.44862216  Gyration_radius:  2.41679154432 Dipole_moment: 4.695
 S          -0.09890304252422    0.11404001562869    2.07159948117576
O           1.42134865911802    0.03199188665399    2.24986027629547
O          -0.68290265591721    0.84656198621398    3.13475786161611
O          -0.27347014895261    0.86800751039408    0.72178077010349
O          -0.64328319234514   -1.20204644875924    1.82557353758690
H          -0.16210228315320   -2.04871088635455    0.51652034636945
H           0.27362770357616    1.69822767632438    0.64880501632243
O           0.22600898133231   -2.49450940681168   -0.27547718843615
H           0.18436969191533   -3.43602936368234   -0.10180536520378
O           1.30838752198287    0.99321426389600   -1.88250485789337
H           1.64713403564541    0.92272329075086   -2.77618803969908
O           1.14313998499925    2.89714067752171    0.02173693213777
H           0.56380364898737    3.59642203146582   -0.28813127604560
H           1.36274764920977    2.34605379920296   -0.75595150685045
O           2.27210531165955   -0.74876459122283   -0.00463949307172
H           2.04065811450991   -0.05189971028499   -0.65123850571183
H           1.84034348772132   -0.29699912336877    1.37398246837437
H           1.67345013076184   -1.49537340224349   -0.20003153998841
O          -0.83576270951669   -0.48144613825963   -1.91979109913432
H          -1.56511283072452   -0.24328771353431   -1.30492723460335
H           0.42897513305093    0.50750838792791   -1.88101377437576
H          -0.48679740925240   -1.30766133566977   -1.55544291027160
N          -2.78451746852950   -0.25875344590576    0.01054436886088
H          -3.02100581837510    0.68392593183721    0.29264963879130
H          -2.19060606075995   -0.64224138011861    0.74062290025786
H          -3.64163641441735   -0.79809452160284   -0.01129079661320
