    26
        -50.45860911  Gyration_radius:  2.40817908329 Dipole_moment: 7.097
 S          -0.09826660593429   -0.27691731378435    1.93766901493916
O          -1.16518142673246   -0.84291971818891    1.08817978808717
O           0.84810196161999   -1.25603870021651    2.38104245989696
O           0.69074921058617    0.73218123820910    0.96733672936654
O          -0.65930230243721    0.62535106311259    2.92252113450106
H          -1.69071496469341    1.46201653488781    1.98398643288740
H           1.35491339515227    0.26940543786294    0.41261578888940
O           1.65404563864539   -2.56755049644782    0.14780001524747
H           1.37868974746102   -2.25863182041397    1.03189890725120
O           0.15346472620262    0.22522126580738   -2.38194661277553
H           0.07924273363744    0.09313485331410   -3.32784132043227
O          -0.63383310873731    2.34600164102896   -0.79338562812860
H           0.07223792004289    2.14585323474512   -0.16057904024111
H          -0.51627369604735    1.67362154444239   -1.48940900805245
O           2.39675978832430   -0.03138015103375   -0.92372255999675
H           2.28720866270102   -1.91664566427776   -0.17293775355753
H           1.66679763798554    0.06967250686790   -1.57559459908180
H           3.00588916709769    0.69463802704400   -1.06747523279815
O          -0.55781642688586   -1.95621171164868   -1.23632611732476
H           0.26568040712669   -2.38857727345735   -0.92052630924880
H          -0.95846715468156   -1.64296860768092   -0.40201779253743
H          -0.18367435039404   -0.63470111484130   -1.95852771547526
N          -2.26486762848159    1.42187182697377    1.09355472202950
H          -3.23629271798115    1.68198195862274    1.22330028593506
H          -2.10177484128606    0.38200144094455    0.90597908295324
H          -1.78731576228781    1.94958996812240    0.31440536766610
