    26
        -50.45860914  Gyration_radius:  2.40820488236 Dipole_moment: 7.096
 S          -0.34435029576083   -0.35057127442409    1.89710716290217
O          -1.14644852624687   -1.07170376901572    0.88874251910448
O           0.68421540004180   -1.15763479423739    2.48148529900542
O           0.38836960909366    0.81323195885801    1.06561950770220
O          -1.20515557482191    0.40546411495917    2.78381686391385
H          -2.21447550573853    1.07247219298667    1.69720822229208
H           1.20290954420697    0.49412610836640    0.62071308774605
O           2.05081257401991   -2.23276599990050    0.39963093434936
H           1.59066119970438   -2.00574249722504    1.23000214947538
O           0.47637172972294    0.32420851164656   -2.32776782671737
H           0.57510769636522    0.21020902016815   -3.27378317990944
O          -0.92056570718912    2.21735321341766   -0.87684445167661
H          -0.29612072679064    2.12666216902940   -0.14138863239878
H          -0.57658929382534    1.59973229696688   -1.54807372082666
O           2.47610536379348    0.42716501088724   -0.53490504099991
H           2.59725147488243   -1.46961451944063    0.18425604673499
H           1.84973794428985    0.41701171992632   -1.29358520354950
H           2.95844347056565    1.25431938354587   -0.57818522140225
O           0.00553767031701   -1.98395484604953   -1.31398185302117
H          -0.56956851102742   -1.77404749294204   -0.55247556533337
H           0.23995010814584   -0.59490990615570   -1.96480254623525
H           0.83509579769115   -2.27145291412659   -0.87347338982658
N          -2.62766704770039    0.95780446036090    0.72748455658806
H          -2.13986542726574    1.58657971522678    0.03446481319536
H          -3.63837657695485    1.03563257682743    0.70363326304134
H          -2.25138638954387   -0.02957443973766    0.56510218589787
