    26
        -50.45019008  Gyration_radius:  2.49763444564 Dipole_moment: 5.274
 S           0.95265413675375    1.68892207374606    1.44470609191384
O           1.81677405109149    1.56057426860939    0.29265886456375
O           1.08693925248308    2.85648628063403    2.23065583391570
O          -0.51429039774514    1.52628924108656    0.93120379220783
O           1.10548426698414    0.44984598616622    2.34908171882788
H           1.08590288651634   -0.39634669946223    1.80845520051216
H          -0.49412545529582    1.76288940220811   -0.05946851007081
O           1.02522233022604   -1.77726003683429    1.05211814873825
H           1.01614854545323   -2.48694351294722    1.69644212870866
O           0.06389895579122   -0.51335617153068   -2.41857853859748
H           0.17006631475039   -0.76503622172920   -3.33668469354906
O          -0.13663892989562    2.01815253764708   -1.52017391300816
H           0.79852912810252    2.15459436650098   -1.31129619739410
H          -0.18754617891042    1.13609536240951   -1.94964429267675
O           2.32380333668608   -0.66314223554252   -1.12031999763912
H           2.14134528815592   -1.30446171114924   -0.41930544536946
H           0.96278076229019   -0.61533734029404   -1.99041782485306
H           2.32650178533527    0.19916719957242   -0.66329320322790
O          -1.11597134290786   -1.93848701705451   -0.34764955858598
H           0.16312533364015   -1.86511464140768    0.52041983468558
H          -1.81335208223422   -1.38154156444077    0.07835841318077
H          -0.86707757540684   -1.47934007290187   -1.16654062194725
N          -2.85641023175206   -0.25368766937698    0.85104950748211
H          -3.56720671233990    0.15760015737152    0.25914949683862
H          -2.18481709448348    0.47466254036446    1.07718598487717
H          -3.30174036329161   -0.54522453166272    1.71188777048630
