    26
        -50.46456601  Gyration_radius:  2.39510308596 Dipole_moment: 4.080
 S           1.42540809918045   -0.88896084768577    0.59128637218073
O           1.73348616008538   -0.41687953150820    1.91277672155689
O           2.05712791961108   -2.11477254957245    0.15178999695736
O          -0.12047285305319   -1.25127214066102    0.55005780906353
O           1.59076484485327    0.17364640307634   -0.42802018014476
H           0.90614620235235    1.60700529290087   -0.32211207253982
H          -0.66322433073888   -0.63152987234957    1.10216245153943
O          -1.64473790688954    0.34952902917977    1.96582783582678
H          -1.93092031512520   -0.07053250173449    2.77828608655857
O           0.40462781763113    2.46038317678622   -0.26050691508008
H           0.90913859745941    3.10920525819948   -0.75243068209417
O          -1.65856412690959   -1.48381285645440   -1.77789070205667
H          -0.12512941210712   -1.65320674266237   -2.07974141501113
H          -1.72731520211030   -1.94102207204293   -0.93409559491452
O           0.40334483187883    1.83904868980817    2.44196727368226
H           1.02856311679708    1.08695064584173    2.37225572441935
H           0.46011324431625    2.31229552063973    1.59609112939200
H          -0.93657194525725    1.01475584365866    2.23036845986474
O          -1.90385315947026    0.98681154553157   -0.78497429058934
H          -1.15348262783632    1.60159011541052   -0.74457719845294
H          -1.79273542763847   -0.53161104159066   -1.54886985312169
H          -2.12673380484255    0.81508838781181    0.13884840930756
N           0.94510573964993   -1.62973005815303   -2.10892988909303
H           1.35828989417276   -2.19369044289812   -1.31328065521564
H           1.23603949102860   -0.67802036152351   -1.75866484071592
H           1.32558513297058   -1.87126890001942   -3.01762397130890
