    26
        -50.46456600  Gyration_radius:  2.395107123 Dipole_moment: 4.080
 S           0.22248699945508   -0.05765396575569    1.76586075773832
O           1.60729046609236   -0.32847143521923    2.03615201237369
O          -0.59778755786092    0.40685800392409    2.86417833410507
O           0.15282278232162    1.14887599819090    0.73525167044270
O          -0.43602006952728   -1.18723810801731    1.06882853057360
H           0.13164809479955   -1.84934527732766   -0.26302135363996
H           0.89295093405424    1.11860175370713    0.07589948166710
O           0.47303581058468   -2.18697386187222   -1.13078600398254
H           0.17415634563635   -3.09379308157674   -1.20712602061079
O           2.06106827509657    1.14246041622067   -1.06721947220594
H           2.72276884219596    1.80886832807731   -0.87618553105197
O          -2.05573936750217    1.76929311563905   -0.86999237364403
H          -1.38665877239917    2.33894161440460   -0.47806670411664
H          -2.47245738373911    0.90603535352813    0.37612915341565
O           2.85894544988640   -1.14145654439972   -0.17997673795355
H           2.47720353694474    0.25846370287349   -0.82346949762543
H           2.53397096153247   -0.95821184154749    0.72677876907345
H           2.19337661589738   -1.71681378019758   -0.59065780880436
O          -0.35297552644888    0.23237635380156   -2.24410895561881
H          -0.16722501510489   -0.68553836713030   -1.98799985218251
H          -1.54382681991103    1.16849116549965   -1.46509652876352
H           0.48618517316562    0.69357572816875   -2.11869767866641
N          -2.54752233064554    0.23308457172794    1.20570349303230
H          -3.50487975887175   -0.00346458744283    1.44306853776327
H          -1.98083692733679    0.58249396459703    2.02954200547171
H          -1.94198074833954   -0.59945921984333    0.97501175320613
