    26
        -50.46456599  Gyration_radius:  2.39510242812 Dipole_moment: 4.080
 S          -1.34972422274137   -0.24341290247810    1.13609010006848
O          -1.05659235655660    0.47730024984405    2.34389101856753
O          -2.70486682056669   -0.71575346329335    0.94804094024528
O          -1.14665660617330    0.74966691711136   -0.08671097151037
O          -0.38111448081778   -1.33887544891897    0.89691080201683
H           1.19719595933429   -1.13130016767823    0.89101871577491
H          -0.39326140368161    1.37683316607049    0.06379583386372
O           2.16987877648620   -0.95094036127610    0.82015490332874
H           2.61579173025879   -1.76864616673044    1.04382604873694
O           0.84224928593483    2.43678647868249    0.20952246954920
H           0.52447985722460    3.31770172129192    0.41306898336509
O          -0.75321710851963   -0.03111107038977   -2.74668991013732
H          -1.43979272446699   -1.16884439151230   -1.90654687033964
H          -1.18323800364910    0.74749685636091   -2.37975978322904
O           1.50501423017806    1.23552812783316    2.39081450178170
H           1.95421806270245    0.45935045583811    2.01871510494963
H           1.20878462189623    2.06660315656158    1.07122931368825
H           0.58411745960478    0.95223424395250    2.57277624099544
O           1.61508205842439    0.36971774976414   -1.57176555987912
H           1.92652495660263   -0.18639662120117   -0.83937050905471
H           0.17814888456217    0.03061462241928   -2.42120142806514
H           1.50375687892268    1.24572225451704   -1.18086163854246
N          -1.79164434778985   -1.85361260769082   -1.16222670201230
H          -1.01321894412229   -1.96061492006474   -0.45824448432147
H          -2.12323107148976   -2.73012172042288   -1.55032149633732
H          -2.48868466155888   -1.38592614858517   -0.51615563349717
