    26
        -50.45442144  Gyration_radius:  2.42954367389 Dipole_moment: 8.077
 S          -1.40892526414366   -1.35979066271043   -1.23518717077166
O          -1.11694797801626   -1.92277591106909    0.09195816249211
O          -2.75071694521746   -1.55372488829204   -1.66655347427054
O          -1.14477431505608    0.20554990869227   -1.04054420287757
O          -0.37292682390248   -1.73251309254220   -2.20941029657482
H           0.76322403763999   -1.03383989870795   -1.77809528495879
H          -1.44681955861311    0.34089124745379   -0.10605774528676
O           1.25384637670926    1.95901117077831   -0.15256421825805
H           1.78650830904075    2.74978203427793   -0.24876352336199
O          -1.77663108646165    0.34081883618462    1.47562768497512
H          -1.92467068467656   -0.61209511708109    1.39688254628676
O           1.27183033680143   -1.97775687246890    0.95474293618317
H           0.31334944098420   -1.99854526126159    0.63226311331590
H           1.46064981831232   -2.86641194678299    1.25780955275681
O           0.78859064430291    0.45669475560009    2.17781480117263
H           1.05278703451516   -0.44295967862372    1.92662797959819
H           1.09903593225422    1.03545619358579    1.46527198509377
H          -0.88533849424337    0.42469520946004    1.89816310059790
O          -1.27020063945171    2.80002717455469   -0.02334189702632
H          -1.65733754469638    2.38389133568580   -0.80056557925853
H          -1.65465663869635    2.34487851858368    0.73637064254202
H           0.31188307951583    2.26692591566786   -0.13699074157451
N           1.64631332036813   -0.54844822210961   -1.28631671922848
H           2.46020584734785   -0.57329279282826   -1.89058348325576
H           1.79078704539405   -1.10926550135701   -0.42301378676352
H           1.41093474003012    0.42279755531876   -1.01554436156266
