    26
        -50.44859325  Gyration_radius:  2.50086594326 Dipole_moment: 4.928
 S           1.10141236050008    2.04376300274785    0.94768194841489
O           0.45821295056570    2.44222943421670   -0.28429696681519
O           1.46904423252147    3.07227850526178    1.84422579892111
O           0.16172550357932    1.00875457405496    1.63745909957173
O           2.35073525651487    1.19396025675991    0.61619929007235
H           2.07498079663877    0.31030498696987    0.24200166390989
H          -0.65390605651607    0.90177914939157    1.02400164052709
O          -1.71666372519799    0.86652686777136   -0.04350963880779
H          -1.47961450553312    1.72693803717494   -0.41087540161269
O           1.63991856599324   -1.18284692024150   -0.13639594146862
H           2.42052618495521   -1.73206090356071   -0.22673002661511
O           0.68069507151873    1.41353139156926   -2.74217864498580
H           0.68073431418149    1.83914032768782   -1.86183763457163
H           0.66551162786913    2.12392317036814   -3.38427042464237
O          -0.56074046371333   -0.76915263860394   -1.74803373077829
H           0.22481529346891   -1.06124672326947   -1.25675653911129
H          -1.37186299234338    0.19971773270221   -0.70287775530969
H          -0.21583369905202   -0.08884337361953   -2.35368516619164
O           0.31348749865569   -1.78606269390388    1.97372179202882
H          -0.58111289406305   -1.97894080404083    1.58289276722610
H           1.16431573919392   -1.48637363743148    0.70724220812247
H           0.24705031918620   -0.90010435527047    2.34869818252969
N          -2.04392474791573   -2.05802552470842    0.71283125744456
H          -2.68395184719295   -2.81228129257883    0.92570438271645
H          -1.81777253755808   -2.10662151736182   -0.27443984003193
H          -2.52778224623650   -1.18028707210890    0.86322764948969
