    26
        -50.44859316  Gyration_radius:  2.50066901492 Dipole_moment: 4.923
 S           0.35769929278489    1.81883494914117    1.68778451634414
O           1.65483145658260    1.25118636596979    1.39570162420320
O           0.33543116577740    3.08390416734977    2.31706783226304
O          -0.43961989692489    1.84525632682797    0.34838823620685
O          -0.45438484482391    0.81652276553891    2.54146339684924
H          -0.70568773455803    0.02256452078307    1.99058639043486
H           0.18271771057284    1.45635917822585   -0.36870441420766
O          -1.30441787879313   -1.13288986662383    1.05909317209928
H          -1.89935972205063   -1.68299479817197    1.57146384564905
O           1.23698335773750    0.81181880525685   -1.23150875371243
H           1.96439386410967    1.03835860270336   -0.63904755375541
O           2.46810356404771   -1.29431422313461    1.48827733398498
H           2.18611643218950   -0.36013404750210    1.55057931968054
H           3.36526005361875   -1.32722151235911    1.82172967054524
O           0.81738375449985   -1.70880785382285   -0.60816455610250
H           0.01731996722594   -1.65762485955581   -0.05959529236567
H           1.08945177881744   -0.16713779217028   -1.09732066472335
H           1.53829683907333   -1.79524331636714    0.04104516873132
O          -2.58733817079839    0.30558166747964   -0.63233821644734
H          -1.87911396018865   -0.60663637810764    0.40882053439796
H          -2.21083086474756    1.16075497907376   -0.39387673423687
H          -2.13756362101055    0.04240229362987   -1.48006138842273
N          -1.09419186745088   -0.41271593613116   -2.74793867869098
H          -0.42536437936020    0.33918651088166   -2.86798099720569
H          -1.50345736917186   -0.61902539071389   -3.65003025305607
H          -0.57265894693224   -1.22798517849740   -2.44543354852884
