    26
        -50.45102763  Gyration_radius:  2.44980156486 Dipole_moment: 6.281
 S           0.25035501780334   -1.65069110150747    1.16149678089672
O          -0.37255413186609   -2.32924292058472    0.00119629449717
O           1.63292465263054   -1.97850219389393    1.34401770852953
O           0.20514588337088   -0.10172329526855    0.74217724084698
O          -0.62853322194507   -1.68751149454352    2.31110793306243
H          -1.96350156709913   -1.01785126449247    1.54362236504718
H           0.94537337659415   -0.03166593583748    0.08212748915908
O           2.31706460210556   -0.30708086588223   -0.74121622783545
H           2.53284197837947   -0.99253198459757   -0.08899342691094
O          -1.84477164721027    0.99321503844389   -1.11607370082997
H          -2.43714688774271    1.20800463626672   -1.83865278643809
O           0.06180903432569    2.59517898338783    0.49266578923914
H          -0.54173053081914    2.53217923507965   -0.25468269312779
H           0.00867458820048    1.72308851093648    0.90986006176002
O          -0.11013491268921   -0.72026241345762   -2.11768683584271
H          -1.13454491396010    0.41621764898977   -1.51167006286723
H           0.82243859054537   -0.47176135354901   -2.09030794850696
H          -0.18430355521057   -1.45444381096085   -1.47346392464857
O           2.75623146536387    2.15735748469496    0.23603374137843
H           2.72951640325360    0.53508126196768   -0.45374950418706
H           1.82629492073838    2.46271447988464    0.24806455765815
H           3.08995166089061    2.29015219334572    1.12469408769361
N          -2.44553861579118   -1.01629165712955    0.60585525720259
H          -2.32615496246125   -0.10966546744909    0.09273504381330
H          -3.41189201856818   -1.32146304681952    0.65435441204283
H          -1.77781523880294   -1.72250065699432    0.13648835837789
