    26
        -50.45260135  Gyration_radius:  2.49732126429 Dipole_moment: 5.354
 S          -0.98981734337214   -1.97541926942165   -0.64525999873494
O          -1.85659491178422   -0.81386716394306   -0.97037894944313
O          -1.26205637254141   -3.11766400945656   -1.44710682434189
O           0.41976596396249   -1.52352145739356   -0.72501717482433
O          -1.25491944313240   -2.32771854060183    0.85246781651964
H          -1.02069289121993   -1.54567615694558    1.40009962838369
H           0.40839996935765   -0.58891798310310   -1.99471839508088
O           0.66224315037975    2.21868176984110   -1.04942205021747
H           1.12105771682925    3.05822869196260   -1.08489418873904
O          -0.78131751481427   -0.18666459539778    2.37217744844980
H          -1.45426360921004   -0.17330288588944    3.05511854418535
O           1.90872659397963    0.14968059103121    2.71512097812667
H           0.93956766101996    0.04777725517860    2.69169527017727
H           2.26479252113466   -0.70081512789080    2.97739074643782
O          -1.53976372209801    1.37309474563946    0.46851403506480
H          -1.05200312321825    0.51060983006663    1.69928604723839
H          -0.81691089281174    1.81043379731609   -0.00837311834084
H          -1.79974401248209    0.60097723867442   -0.08355815134094
O           2.13582344022205    0.40840199193099    0.03073452719384
H           1.28398761419433    1.57326824646398   -0.58309574457849
H           2.17568947431952    0.43528371337558    1.00833284587545
H           1.62285588684882   -0.39447039740170   -0.18127616930252
N          -0.12990888608432    0.14346235558259   -2.55803046040868
H           0.16709873411537    1.08603533730118   -2.22820796317180
H          -1.08657598883437   -0.09330055879616   -2.14930145865991
H          -0.06544001478626    0.02540258188125   -3.56229723047715
