    26
        -50.44731978  Gyration_radius:  2.52100188481 Dipole_moment: 6.580
 S           0.93565682195087   -2.20682356638184    0.56586860093497
O           1.02183757102731   -1.47712978879837   -0.67581616139289
O           1.74528915511144   -3.35900321600699    0.69422561887924
O           1.22723222472683   -1.17589034992655    1.71203761860921
O          -0.53361701208355   -2.57439474241665    0.85375604830401
H          -1.12448893000417   -1.77182520463211    0.75539630427055
H           1.98601134446734   -0.61307138088766    1.33598162430123
O           1.11133062698072    2.20949352063925    0.00754428973717
H           1.28245019111992    3.11232541957962   -0.26165025758657
O          -2.09925588573285   -0.50694934661553    0.82194572477166
H          -2.76192261424728   -0.71613405027840    1.48385792059075
O           2.89245804137983    0.22982131728118    0.42543215336722
H           2.72856278992007   -0.27773257518106   -0.37948241400458
H           2.38149995752307    1.06271827390491    0.32052095695313
O          -0.40523772874642    1.08991330287607    1.96796204649231
H          -1.50564396402701    0.18781976619846    1.23474049172769
H           0.20793068817941    0.39693271005121    2.24805787350470
H           0.08567727188783    1.62206987564021    1.31264217054353
O           0.36508776064657    0.80435875061827   -2.01079173226712
H           0.78516899567126    1.72002867724240   -0.81446983559278
H           0.61753745880252   -0.07852721510649   -1.69384966386245
H          -0.61714283000306    0.76857227734961   -2.09437084406834
N          -2.32921227789536    0.47371248339920   -2.00202245944169
H          -2.40493733282974    0.07960303985257   -1.06880926988045
H          -2.60679222213092   -0.24024424227652   -2.66319249168551
H          -2.98548011170870    1.24035627388743   -2.07551432320815
