    26
        -50.44731981  Gyration_radius:  2.52057667164 Dipole_moment: 6.565
 S           1.36727340873114   -1.32382205140588    1.55925644920862
O           0.23316244891443   -0.47857349448987    1.84389322297863
O           1.84173369420929   -2.14212711006334    2.61030994254440
O           0.98348773750108   -2.17919463175319    0.30122345584756
O           2.52661006175946   -0.47175128186733    1.00583381205982
H           2.20807758558025    0.12146591532874    0.26428729566863
H           0.01144903381176   -2.42464126379391    0.47045279571822
O          -2.17973409514732   -0.56623220605463   -1.02544061560177
H          -3.04558599682073   -0.40813171445066   -1.40244021689353
O           1.82863368422917    0.94176531926722   -1.05313121138927
H           2.62315025661196    0.96551424026285   -1.59088082644639
O          -1.48184518996551   -2.39062999349668    0.83224455043474
H          -1.86771982526973   -1.84584646986648    0.11103419526026
H          -1.38965375552279   -1.79450518173428    1.58625214783447
O          -1.67848146167652    1.16248319819743    0.80943331466790
H          -1.02808609002314    0.66088722994929    1.32818271074784
H          -1.17720263471647    1.93849826779575    0.46383816437513
H          -2.02400045902593    0.16396324915309   -0.34428058075482
O           0.30315882433380   -0.88287197726440   -2.08997128094833
H          -0.63314837090514   -0.74661972315106   -1.84857044661529
H           1.20083326165752    0.31056872611643   -1.51490720447689
H           0.61320137115974   -1.60200382938174   -1.52305385723950
N          -0.02522210715552    3.10513716757214   -0.11936886544596
H           0.34416723984124    3.65613016358950    0.64475951957985
H          -0.27048926239015    3.73694382216360   -0.87068092280096
H           0.71623062025744    2.49359363936346   -0.44827552832255
