    26
        -50.44731988  Gyration_radius:  2.5206670371 Dipole_moment: 6.568
 S          -0.63765333586598    0.71030521546666    2.26808112754025
O           0.00773279807476   -0.51020765046009    1.84919028842417
O          -0.69779931413386    0.96400228897334    3.65785245833999
O           0.07952503891319    1.87990307422833    1.50690730031331
O          -2.05623347665642    0.78194734375802    1.66905915872819
H          -2.03512547993254    0.59508018673574    0.68523222621818
H           1.06077605274229    1.61548778521825    1.53894669769932
O           2.20248850425478    0.15531841586056   -1.11788033944841
H           2.90866667724335   -0.09221311582208   -1.71527238770999
O          -2.06156380003296    0.51228182450276   -0.91004224083998
H          -2.78716580184102    1.07238991335657   -1.19427745544469
O           2.38710536608497    0.84126406081115    1.48243766580788
H           2.49060452474480    0.65732877993534    0.52258191941196
H           2.04428103812897    0.02469043752028    1.86720727973850
O           0.10803459613648    1.88158782495023   -1.29645033639663
H           0.14908117270543    2.25161777889578   -0.40419750930533
H           0.88967042709248    1.30141613262565   -1.37353680102823
H          -1.22155261516795    1.00225614220545   -1.15508643522438
O           0.99735091612495   -1.94097966136887   -0.24633493980089
H           1.74343650561110   -0.70202002383041   -0.84284616114254
H           0.63612159807067   -1.58481491283817    0.58214049788746
H           0.20435652524940   -2.16715243166608   -0.78755791070291
N          -1.34556793264543   -2.32512043372349   -1.56279527972289
H          -1.74386763103609   -1.40829235503144   -1.38195853769553
H          -1.91646271246098   -3.01038814393118   -1.08486259823571
H          -1.40623965137950   -2.50568848647745   -2.55653766737666
