    26
        -50.45860912  Gyration_radius:  2.4081727799 Dipole_moment: 7.098
 S          -1.35573941705145    1.08668609007457    0.90617177142653
O          -1.33022472811023    1.07520396511056   -0.57012499851494
O          -2.40062997369628    0.27778312412347    1.45820242517863
O           0.03738920578563    0.40954602573663    1.33419103009926
O          -1.20257785228021    2.43799567182353    1.40551289022169
H           0.01376127735112    2.95350829242320    0.45784520869121
H          -0.00833289948125   -0.57081458348135    1.32331276679665
O          -2.15530360440739   -2.15105082824423    0.27604154644145
H          -2.42230478579052   -1.30983590081541    0.69308804061339
O           1.57317478122037   -1.40830071221306   -1.13541034440313
H           2.01654847217760   -1.97021250305998   -1.77216222333288
O           2.36178830573504    0.97734554578009    0.01699670703284
H           2.22216144042004    0.19851738008496   -0.55240968598442
H           1.83788406295431    0.77923203754654    0.80767945560922
O           0.53700645123079   -2.19916810730652    1.21493173433986
H           0.99202875701021   -2.03868262220967    0.35744334621247
H           1.21671280361387   -2.38757008164456    1.86397810988474
H          -1.43403436543502   -2.49435682135778    0.81394548499522
O          -0.87369785898786   -1.18568522245658   -1.87041684212714
H          -1.10955837071747   -0.28607689143702   -1.57072321797284
H           0.62441772091086   -1.29822633213609   -1.48207788085699
H          -1.40094324756272   -1.75036817144623   -1.26384728124144
N           0.49499973679130    2.80691048094181   -0.47557179327020
H           0.62108978481602    3.66097594008668   -1.00739189845883
H          -0.23836455771263    2.13777320399981   -0.87202348475246
H           1.38274889119818    2.24887098006425   -0.35718086666850
