    26
        -50.45018998  Gyration_radius:  2.49763085898 Dipole_moment: 5.275
 S          -0.59330886995288    0.59373872576234    2.26762039309851
O           0.83577183038037    0.37710865448129    2.23226429679086
O          -1.11536752811364    1.30652171877125    3.37135617607600
O          -0.97990669764974    1.28605992685208    0.92116803156791
O          -1.32639909876094   -0.75693295838429    2.14573779550338
H          -0.92986765601620   -1.31899016725710    1.41392821226292
H          -0.13029043314202    1.73223337347637    0.57904410491819
O          -0.40393857909170   -2.25576912214919    0.26143139052145
H          -0.98296900477466   -3.01611603545863    0.18776652858749
O           2.02415692409135    0.16590841908115   -1.41099231426792
H           2.83471475834588    0.14271478600428   -1.92087180386970
O           1.29669413531520    2.15754020298485    0.24964285555237
H           1.64476145307125    1.77625616273903    1.06832166110625
H           1.58082748614318    1.55045206656893   -0.46866553827194
O           2.17831241238974   -1.36614732309079    0.69713914638358
H           1.46122838904885   -2.00262334461072    0.56838161632953
H           2.15668186727092   -0.45651123858469   -0.63852078386654
H           1.84290015043827   -0.76065638202225    1.38520019768870
O          -0.42597018410639   -1.01165275913276   -1.97949007025211
H          -0.44051716349713   -1.78269974067738   -0.63777119191078
H          -1.13554436517647   -0.32328458475159   -1.95111578234815
H           0.41742617637445   -0.53031981412132   -1.96077840512160
N          -2.29377567621109    0.91946913512779   -1.68604333797983
H          -2.16875126889223    1.75561025109451   -2.24267209816571
H          -2.07522856914208    1.15579072759920   -0.72222136666203
H          -3.27164048865501    0.66229931001927   -1.72985970364800
