    26
        -50.44731987  Gyration_radius:  2.52096478527 Dipole_moment: 6.577
 S          -2.06641621485095    1.31890471688512    0.23238575762140
O          -1.91667674051059   -0.09248518518544   -0.02686247511569
O          -3.36733099692005    1.78510438335425    0.53197246331251
O          -1.05677976398725    1.67264497238468    1.38014471113245
O          -1.48632564788881    2.12951784484445   -0.94361259909212
H          -0.56831952832456    1.80503032334007   -1.17815010035029
H          -1.13094681239974    0.88018915804635    2.01278405317060
O           0.96912248553557    1.48834332318551   -1.47784950597625
H           1.35896657731196    2.31483776836845   -1.77101712379701
O           1.15652836017167   -1.39105262825761    1.68662014362088
H           1.69542070337595   -2.10925639945278    2.01923434951948
O          -1.22609963559160   -0.53263360129913    2.61018581957912
H          -0.32880706590379   -0.89877257625935    2.44719947687352
H          -1.78595239834232   -0.89959946488924    1.91430066046508
O           1.67906813849906    1.18824476320911    0.99978407897834
H           1.63777006772284    0.25168576281677    1.27317366162841
H           1.32814365488136    1.32495041950633   -0.55594768758351
H           0.89114194745662    1.60165666012830    1.37785486978672
O          -0.17444419153202   -2.15717762753704   -0.37430772153963
H           0.69181752883265   -1.73827452305217    0.85897342091858
H          -0.90897619335537   -1.52264317026055   -0.33596524468925
H           0.29340989211810   -1.94733064925973   -1.21697724913880
N           0.99722529438811   -1.26866510582570   -2.65606776694130
H           1.92793074942693   -1.53837099219175   -2.94737831475151
H           1.01403567146481   -0.28237644740704   -2.41342705503535
H           0.37649410843989   -1.38247174524005   -3.44705063263780
