    26
        -50.45521608  Gyration_radius:  2.43508560082 Dipole_moment: 2.500
 S          -0.83031617789357    1.56935168989489    0.55949327664936
O          -1.66219483572237    0.58120192263415   -0.09253895511705
O          -1.20918006461126    1.90915782838745    1.88975273987206
O           0.62605274254712    1.06655368388653    0.52321574667640
O          -0.74633265546735    2.83025806938975   -0.31496531657090
H          -0.67335085786189    2.47570960749876   -1.25035952682530
H           0.70764577974090    0.05613451226142    0.87706663154535
O           0.77506496592798   -1.29635384269944    1.26549111017755
H           0.11246932701176   -1.25276796573172    2.01547901087430
O           1.12939658061992   -0.53518308438594   -2.50964635575925
H           1.58904926162696   -0.79085708211671   -3.31079163460993
O          -0.74987698786923    1.45646879861020   -2.48036180155108
H           0.00122301569710    0.83744077261290   -2.56767652465445
H          -1.44008164337105    0.95488599316578   -2.02501151514050
O           2.85618439348872   -0.26972746100652   -0.49860622318706
H           1.81907979220550   -0.43448906054929   -1.80844400151706
H           2.54749378660976    0.57468196826873   -0.15088436230659
H           2.59159953926179   -0.92648120336715    0.15673008304774
O          -0.68595923729133   -1.83239307965181   -0.83208102625187
H          -1.23508506959292   -1.06272693489921   -0.59884201635611
H          -0.12392463580909   -1.53720498190133   -1.56593076727827
H           0.27468030697677   -1.70963874515286    0.50989937758131
N          -1.19455820759759   -0.78174368323963    2.93506782232164
H          -1.27102266901615    0.21082939118051    2.71316299660228
H          -1.15843900330366   -0.87079436863499    3.94312970320890
H          -2.04961744630098   -1.22231272444966    2.61765152856405
