    26
        -50.45331696  Gyration_radius:  2.4470272814 Dipole_moment: 6.621
 S          -0.78157550336821   -2.04753837402731   -0.73820321530340
O           0.57037914909843   -1.81531618490877   -1.52790446364916
O          -0.83102437673679   -3.43214232344707   -0.41418330732603
O          -0.59825827422607   -1.20090283952805    0.49326921092840
O          -1.87079381169600   -1.50213892256732   -1.51814993089789
H          -1.88963016315351    0.04832282305432   -1.30815784429897
H           0.73512444297856   -1.16153847476765    0.73625168009774
O           1.90935680500367    1.57198289393244    0.29951045556066
H           2.44889600805238    2.32330730720385    0.54671157512277
O          -1.82094014711599    1.04587347511324   -1.27811048143738
H          -2.54841152098880    1.37286675871005   -1.80942674861333
O          -1.31922034307151    0.16873281473381    2.65590608586086
H          -2.25687882192599    0.08411661823174    2.83565031645553
H          -1.12868433427617   -0.44068094059412    1.91608069940505
O          -0.52739595208977    2.10177779535990    0.92731008565269
H           0.96336787694066    1.80323297452723    0.57902112024698
H          -1.05591436069967    1.79431676173824    0.17015160423826
H          -0.78919806703568    1.52194572029035    1.67073957108619
O           0.72947213154447    0.71016699070513   -2.09878340937522
H          -0.19169663322809    0.98618790678822   -1.92357671521377
H           1.26037433843389    1.09473602519910   -1.38429155758532
H           0.59524972350547   -0.87178978297196   -1.85545534536790
N           1.87499931514910   -1.07053796123194    0.77301601632887
H           2.25762656566367   -1.44419472839527    1.63415132927266
H           2.07197508394956   -0.05091577515900    0.66253224547780
H           2.19280086929565   -1.58987055799003   -0.04405896666758
