    26
        -50.44340941  Gyration_radius:  2.45057763059 Dipole_moment: 3.520
 S           1.28458355366685   -1.09211527001043   -1.42810243644104
O          -0.11910821540467   -1.20348227779544   -1.81551412332524
O           1.87532824423364    0.17313318281594   -1.79793792974450
O           1.49781053467393   -1.46391035486677   -0.04175042978527
O           2.04673148800072   -2.20054775701086   -2.27231706477106
H           2.04882688317016   -1.84131300932223   -3.15427085566862
H           0.34717683770023   -1.64442592725607    0.97798598653652
O          -2.39859315047159    1.47953049682554    0.98276652425465
H          -3.03408411323506    1.32287751755870    1.68408207957622
O          -0.45161523361493   -1.73013853954994    1.57980900124822
H          -0.49950273188455   -2.65579000324432    1.82449939671876
O           2.22424169010116    1.13636978715108    0.70098460881848
H           2.13110177914077    0.94450340053607   -0.24940535852720
H           2.61543961188433    0.33774609437915    1.06431764548445
O          -1.97642599108683   -0.71914576326362   -0.21673211536717
H          -1.50289936151905   -1.15797556150772    0.56626152041945
H          -2.10046701884698    0.27827986412447    0.05816433089834
H          -1.26108792751136   -0.78910513300670   -0.96927532798089
O          -0.07782394603524    1.07028270798574    2.13646697265858
H          -1.50101489919002    1.49922919532537    1.40904060314332
H          -0.11003045402633    0.11169820233688    2.23352554887772
H           0.72827921997470    1.24883502832552    1.60775389061103
N          -0.58096586010823    1.53503261042762   -1.06136752177240
H          -1.16398993601010    1.91183885628984   -1.79845304652285
H           0.23334113823855    1.12391434025631   -1.50353013859798
H          -0.25525215184205    2.32467831249854   -0.51700175074293
