    26
        -50.45109191  Gyration_radius:  2.49284357579 Dipole_moment: 4.678
 S           1.52945055701437    1.62881559426450   -0.54058232135592
O           2.39568426474356    0.57732129188267    0.19026268164562
O           2.00536464867929    1.85401167693672   -1.85912195899643
O           0.14324735321941    1.20713707902981   -0.46982589706931
O           1.71384381418884    2.87049224529780    0.34433400163315
H           1.42462644944641    2.54291244141233    1.24454422021308
H           0.11167906790355    0.08033757779233   -1.72581936627143
O           0.28803708072604   -0.70942581940512   -2.27546586773404
H           0.96702178887726   -0.43562463487523   -2.89627286429653
O          -0.48955693504336   -0.58182714445102    2.06184728093605
H          -0.90735198881715   -0.96071414773211    2.83662651970072
O           1.11151775777951    1.57860059957304    2.50213410393253
H           1.95832232385927    1.14082847426434    2.62381017556107
H           0.46639572234331    0.86093743838192    2.31779452458926
O           1.16158728830551   -1.61515482012211    0.16681041365820
H           0.48993830059747   -1.37810998698336    0.83802600177294
H           0.74169353380184   -1.53873906524839   -0.71012784655520
H           1.96565291737467   -0.36524654834747    0.18402831459787
O          -2.27502743025343    0.31862716202499    0.43980398205428
H          -1.62756161859365    0.90557528399427    0.02514769536055
H          -2.42359203912762   -0.40613859828029   -0.21429055333617
H          -1.23397046695601   -0.22812306238696    1.47994114750096
N          -2.40629588766634   -1.66738820268193   -1.42700856423985
H          -1.54991243177594   -1.47963199442720   -1.94035149127653
H          -3.17998745694063   -1.56632876055055   -2.07181335691929
H          -2.38080662370559   -2.63314408939435   -1.12443101509960
