    26
        -50.46328763  Gyration_radius:  2.42801071693 Dipole_moment: 7.587
 S           0.78630459606414   -0.03284588585258    1.98310948163844
O           1.49741420360192    0.50469013546581    0.80886095453561
O           1.06995844779084    0.65286564416958    3.19370071642649
O          -0.66407638110641   -0.06565629253964    1.64936337746836
O           1.21732203384583   -1.52700530688316    2.12109152682804
H           1.03762538138038   -1.95807622306675    1.25727794572349
H          -1.02617966237111    1.09010765747534    0.80429194165485
O           0.84168358659793   -2.71118465298266   -0.24437807474691
H           1.55409082923742   -3.34274428850755   -0.35234336116424
O          -1.53261521514901    0.06443682455667   -1.94113624300039
H          -2.11788279638516   -0.12348264458366   -2.67522974542197
O           1.17449700870323    2.95184857757417    0.02455316384300
H           1.44985793969512    2.10329593055316    0.45508400774381
H           1.74491611017133    3.05338326353041   -0.73988761339042
O           1.21060611421269   -0.51696659891509   -1.58713944804050
H           0.33040734450525   -0.22234395275477   -1.86362681281650
H           1.39606956895015   -0.06492059043373   -0.73054092454668
H           1.03855664560282   -1.94647490333929   -0.86001595770001
O          -1.74637571848386   -1.73701574308928   -0.08947409996371
H          -1.04178783998710   -2.38984769789304   -0.19873623857211
H          -1.45598735913265   -1.18957399936096    0.67347698075985
H          -1.67037388223587   -0.67480737205545   -1.27154694874212
N          -1.24465492041122    1.86031954434300    0.06578403734341
H          -1.45748068313591    1.35806168005636   -0.81823996154995
H          -0.36659217557680    2.43323109668757   -0.03527541239282
H          -2.02530315635980    2.43070579780652    0.37097672807461
