    26
        -50.46328763  Gyration_radius:  2.42780012536 Dipole_moment: 7.586
 S           0.02328535687149   -0.58718375997782   -2.05030476882098
O           1.22484785313596   -0.30910923651698   -1.24257696785744
O           0.20593710620249   -1.60236840318896   -3.02614106375231
O          -1.09283945386671   -0.86962281462889   -1.10662609798664
O          -0.35741637246006    0.75052778288036   -2.75955307970197
H          -0.43774959665030    1.43382306517934   -2.05888478447053
H          -0.59428969111558   -1.59197337943558    0.08082918730990
O          -0.64126324383052    0.30929295136616    2.36839012379178
H          -0.98685007924153    0.60527507355416    3.21082492676834
O          -0.48499455388439    2.66120284058983   -0.89625991687641
H          -0.15378675908829    3.46372484599206   -1.30169362991662
O           2.33843321269934   -2.13976528169852    0.21180054907956
H           3.09450667791449   -1.71593234394796    0.62261934769891
H           2.03900248621279   -1.52216749916591   -0.50232727897448
O           1.25560421002093    1.50470229935735    0.64863387368449
H           1.35445093690926    0.80891326124681   -0.04304214034394
H           0.22397645586443    2.34360678423192   -0.26455176173891
H           0.74675883033360    1.10118072585182    1.36726613127904
O          -2.22797717509027    0.96154680772298    0.42496013691391
H          -1.96891317660309    0.25805096940467   -0.21081645989262
H          -1.30603841356706    0.60024883387337    1.67048073671193
H          -1.91278316954541    1.78040297454136    0.01913876922834
N          -0.18871277127986   -1.99042296110699    1.01000833208159
H           0.83720934710311   -2.15709762697371    0.83938399620973
H          -0.66566043535435   -2.84823180107600    1.26420979238832
H          -0.32473760168139   -1.24862410809831    1.72423203722369
