    26
        -50.46328762  Gyration_radius:  2.42777971141 Dipole_moment: 7.587
 S           1.32189853598505    0.48835127807385   -1.60121825866015
O           0.18578758255052   -0.44548027953641   -1.70488024990613
O           1.57856260230969    1.21960811070107   -2.79100548719643
O           1.07932370382973    1.35584517395028   -0.41607065389695
O           2.57474620270900   -0.37080709213605   -1.24096024362365
H           2.34613598858438   -0.88858449495250   -0.43851929599694
H          -0.36235056693910    1.64000588249101   -0.27078987654296
O           1.95793514457072   -1.87356870813250    0.88034555350784
H           2.40138442932973   -2.71446451042472    0.76061314220151
O          -1.34682510684273    0.09333068765350    2.07193336229668
H          -1.69290353106900    0.04227147427321    2.96318586757247
O          -2.20740861447621    0.37996474730545   -2.25255363063650
H          -2.75236406390936   -0.40909783921993   -2.27310460653058
H          -1.27010990735920    0.05992475219909   -2.26061417429442
O           1.21221692917366    0.50704665609178    2.08377393950551
H          -0.35638465043014    0.25099898119230    2.16027711353782
H           1.67051071528634   -0.33786705408739    1.98051674511253
H           1.28978861317889    0.93653418105864    1.20297479229256
O          -0.57224240004682   -1.96136364352049    0.29369141425072
H          -1.00741111306840   -1.34552760120259    0.90163223861841
H          -0.36525276838217   -1.44450127303235   -0.52010192459451
H           0.98436953696958   -2.03419266255682    0.70996364156157
N          -1.43443665368777    1.71773370388744   -0.09413990694669
H          -1.70808490271868    2.68994885364575   -0.00565756666781
H          -1.62131775908716    1.18483922369973    0.77767739533943
H          -1.90556795648413    1.25905142256213   -0.91696933032728
