    26
        -50.46328758  Gyration_radius:  2.42775068576 Dipole_moment: 7.588
 S          -0.93490491853740    0.36294036744003   -1.88264263045158
O           0.12514474776350   -0.63479029373352   -1.64945376960976
O          -1.88223930381240   -0.02085222309689   -2.86825275696122
O          -1.54970813533037    0.67683002175904   -0.56374842876187
O          -0.22088852821797    1.67592858800748   -2.33408940039411
H           0.45024090892526    1.88743563254023   -1.64915449061713
H          -1.59154394308714   -0.52941939819490    0.28685392454392
O           0.44970630230832   -0.18788061284202    2.42417812572707
H           0.69827726872025   -0.05964252624088    3.33985980165800
O           1.68588209446591    2.23109192647584   -0.54684610070687
H           2.42096629227838    2.60405688116154   -1.03534959735582
O          -0.42001979584403   -3.03410733200253   -0.84078122488237
H          -0.24646420222320   -2.20147773702036   -1.34835265213686
H           0.42593184935791   -3.48158355254162   -0.77697216895604
O           2.04577704834024   -0.26153238953564    0.09380887596294
H           1.60966109599733   -0.38128790366739    0.95034892231341
H           1.37669687663826   -0.49741936373570   -0.59098359659607
H           1.95723224138718    1.30486338690664   -0.28011966444880
O          -0.32765871422151    2.03717847452060    1.34497740988270
H           0.16511886191105    0.71369918936209    2.07802783656600
H           0.41202666320679    2.43126437190354    0.86319772947608
H          -0.90357415657641    1.66019345862998    0.64322888427619
N          -1.48099217676835   -1.38674346774138    0.94973819746879
H          -0.78944880157599   -1.10457410089969    1.67158520303412
H          -1.10083968681003   -2.17196559810020    0.35949604503298
H          -2.37437988829675   -1.63220578936165    1.36144555592844
