    26
        -50.46328764  Gyration_radius:  2.42779900608 Dipole_moment: 7.587
 S           0.38329714471979    0.62921708329319    2.00195633717101
O           0.75617702944148    1.39147343684646    0.79632494131614
O           0.03413954761122    1.44108775466238    3.11333248994234
O          -0.68764652430993   -0.32791553924486    1.61073385037440
O           1.61722326947572   -0.25265553662196    2.37212570369937
H           1.85104060898498   -0.76960464075166    1.57060335927680
H          -1.57115440203917    0.27312013868004    0.59180015499377
O           2.34990290400398   -1.60058067468635    0.18488886153163
H           3.30636795957979   -1.65504298015638    0.20258735422713
O          -0.98950108297035   -1.06747464042824   -1.99935822960873
H          -1.23500131375914   -1.63994100420183   -2.72646236559353
O          -0.89697079495106    3.02773325759751   -0.34298484819657
H          -0.21590333993178    2.57526883965451    0.21600808912644
H          -0.41860484003931    3.40005195588876   -1.08626262342477
O           1.46151411902108    0.22227725262189   -1.44025547711789
H           1.22128861001752    0.76006112423443   -0.64943427068803
H           2.11208577494305   -0.93486839621410   -0.52429174746725
H           0.62908460901868   -0.12197952170747   -1.79626385927057
O          -0.28574240825678   -2.44556364578274    0.08055362189684
H          -0.72875315910418   -1.67169683381190   -1.23747423873492
H           0.67780092933213   -2.52171552284518    0.09916755935419
H          -0.49145515434097   -1.77568386797878    0.76988896624339
N          -2.12049909459611    0.67367031603282   -0.25935321629576
H          -1.86693838905624    0.07765894948901   -1.07134962729560
H          -1.77421206696547    1.65839254104124   -0.40005469538489
H          -3.11753993588782    0.65471015430312   -0.07642609003001
