    26
        -50.46328765  Gyration_radius:  2.42787600399 Dipole_moment: 7.588
 S          -0.02321116216221   -0.61808539941184    2.04151664743778
O          -1.15195185192313    0.02894336741581    1.34817700732572
O          -0.41556941656386   -1.56389679085193    3.02527669111603
O           0.87287336140344   -1.18842946673399    0.99857173357177
O           0.79839309259085    0.52327232755600    2.71937630460270
H           1.01918433589449    1.17383485635469    2.01765184426682
H           0.08287453467815   -1.69269696062544   -0.14216240227251
O           1.33145403135631    2.36757635834745    0.86147495267013
H           1.29055749973867    3.21913615757567    1.29877711777925
O           0.50098405934106    0.17964897173294   -2.41556358652935
H           0.84655743714304    0.38538434213869   -3.28447421129057
O          -2.87977268438696   -1.34117891351485   -0.01030917318921
H          -2.35057457816957   -0.86401003598865    0.67772763578006
H          -3.50739715735835   -0.69932674062037   -0.34805790440835
O          -0.79974717345755    1.82814291648992   -0.52421309298349
H          -1.04267448862185    1.17162893733521    0.17026799060971
H           0.50895871821204    2.29442805134754    0.29511684694265
H          -0.49785069572085    1.31486767496933   -1.28807975077896
O           2.36911266267836    0.27018675673255   -0.62049577793231
H           1.27900038756200    0.23813678021244   -1.77928757644804
H           2.34827110298030    1.13254146861364   -0.18405390639596
H           1.96674764766039   -0.34432584301872    0.03268985590800
N          -0.50038560869267   -1.92343434369723   -1.03286008911002
H          -0.32489507137415   -2.87589519702814   -1.33277492378353
H          -0.21000141204121   -1.23350381660024   -1.75302490809601
H          -1.51093759078004   -1.78294543874385   -0.77126729478574
