    26
        -50.45260134  Gyration_radius:  2.49720179769 Dipole_moment: 5.354
 S           2.02008998671900   -0.09462314791314    1.09844159126552
O           0.89226686695111   -1.05586484553864    1.05730730981173
O           3.22075688249939   -0.65591113974408    1.61332132885276
O           2.17918840191969    0.47523298733223   -0.26388875575407
O           1.56579662048866    1.07730443837727    2.02474641340491
H           0.71428625780025    1.42981965915980    1.68267683673087
H           1.93476346040727   -0.76376898480623   -1.21715327249311
O          -0.66538964433527    2.17302413464015    1.05523905399234
H          -0.59146705214434    3.12042820702116    1.18335078579116
O          -1.01115522403954   -0.82354245538755   -2.18157771522522
H          -1.72788379093827   -1.02839902163617   -2.78238327873103
O          -2.81656656587645    0.59809464451918    1.65420656267680
H          -2.76000558167888    0.39300181556789    2.58895375667783
H          -2.10549980267875    1.23867454188901    1.46884146948534
O           0.07147818189416    1.62792235043116   -1.35157021016946
H          -0.47805901431187    2.00698195616921    0.08089032616678
H           0.93835491424266    1.29288712750513   -1.02788834663137
H          -0.37764885419151    0.86526051354293   -1.74876097024208
O          -1.65122688869848   -1.39537958072734    0.24303348999828
H          -2.21946207648706   -0.73424663434870    0.68811682757690
H          -1.34740740390234   -1.03733236478876   -1.25324022097900
H          -0.78294119156863   -1.32237504868912    0.68280744914660
N           1.39631604457070   -1.67487913606069   -1.35163999261654
H           0.53670387324153   -1.49285966243716   -1.91154173131823
H           1.10796477827931   -1.77802621075358   -0.32710955287942
H           1.95674685185862   -2.44142413331893   -1.70517914452336
