    26
        -50.45260127  Gyration_radius:  2.49711583535 Dipole_moment: 5.354
 S          -0.72430836653198   -1.70049732472831    1.37101026889066
O          -1.46941182559420   -0.59845147063284    0.71689780262458
O          -1.56568682413315   -2.73538460055499    1.86378586815645
O           0.29918419909619   -2.18734557180342    0.41108636681512
O           0.05018815572528   -1.05962143605001    2.56570069496386
H           0.59696639214554   -0.31983815713475    2.21911548702406
H          -0.45011963576892   -2.15385483439677   -0.98162548027718
O           1.66865477942773    0.85836724062554    1.66006674460759
H           2.48223112264869    0.80068205157141    2.16426623548118
O           0.18223941501863    0.48065461443024   -2.48842228781864
H           0.30128946093350    1.03875722488803   -3.25718625229127
O           0.22751971299298    3.11667370508141    1.12177486705308
H          -0.32142757959832    3.28645748157099    1.88915526939794
H           0.80931620109357    2.37106508283709    1.35824955290958
O           2.00156806944407   -0.41819440814857   -0.55179823257101
H           1.50017952146450   -0.06243533758433   -1.30231760977775
H           1.86582005757088    0.44828942263584    0.76285953177137
H           1.47640190438255   -1.17773617987916   -0.21158141056638
O          -1.19539022191327    1.68568098004792   -0.68131532271600
H          -0.69532775691331    2.33149739934556   -0.14195479322773
H          -0.33040936201537    1.03050513639803   -1.81357467964867
H          -1.38998161217807    0.94491180733224   -0.07627483879401
N          -1.17738961971399   -1.64716711355917   -1.57546885711224
H          -1.63027341037358   -1.12302882270457   -0.76081298070725
H          -1.80785059465334   -2.26231588611834   -2.07623313196859
H          -0.70398215272644   -0.94767099354806   -2.18540282228885
