    26
        -50.45007662  Gyration_radius:  2.50581664551 Dipole_moment: 4.969
 S          -0.53842021918535    0.22787518821569    2.37934714559657
O           0.83357051213557   -0.21901349282978    2.27556566249255
O          -0.93009397374235    0.83531950595495    3.59427675328020
O          -0.79834686378154    1.17373599842105    1.16539702284512
O          -1.48891259246708   -0.94832018485843    2.07179440480015
H          -1.22166284129738   -1.39812989859989    1.21776027289130
H           0.11667021982752    1.53201606244545    0.88924761284543
O          -0.74055585892936   -2.18229331137598   -0.08093547548523
H          -1.01456984039244   -3.09918666700012   -0.01955498145878
O           1.98982487163302    0.11828748458539   -1.43756635774999
H           2.54688038368866    0.28518442754041   -2.19841289300143
O           1.59390942483372    1.78124506349292    0.62671127825490
H           1.80234592356254    1.26427473227472   -0.18412421322860
H           1.87213543720032    1.22776421352229    1.36949791416673
O           1.76437938081428   -1.90493718412385    0.41582559001702
H           2.05372303359603   -1.26854866683657   -0.26157359406733
H           1.59795119938048   -1.37643642051577    1.21958215839729
H           0.26095109136490   -2.17048188710632    0.06428875621507
O          -0.41716098598602   -0.40701830793342   -2.24415236218930
H          -1.00745699193602    0.36518247445475   -2.06814685344022
H           1.06840210312164   -0.06231985774086   -1.79656592031115
H          -0.69516138230226   -1.09025639007350   -1.61765070768359
N          -2.02305721640529    1.63900657268983   -1.48515503273782
H          -1.78025604821884    2.57145912929815   -1.79501513670158
H          -1.82445864797152    1.58412552751836   -0.49026161261505
H          -3.02063011854827    1.52146590857595   -1.61017945113265
