    26
        -50.45807500  Gyration_radius:  2.4215062027 Dipole_moment: 7.649
 S           0.40268337588983    0.84178749555800    1.99665302309076
O           1.29113662031581    1.48032733411884    1.03629623629338
O           0.55588926724813    1.23740541831894    3.35309408015394
O          -1.08169377815529    1.17056429175614    1.52069920920192
O           0.45585633525497   -0.64232383285018    1.82799718593111
H           1.17592011685570   -1.44846882284386    0.62184938689666
H          -0.98385034064258    1.89855493766126    0.84825293285151
O           1.48792596444731   -1.97666944611631   -0.15834745617710
H           2.05719487395225   -2.66163192437373    0.19365338098949
O          -0.31341714333946    0.79022035885155   -2.27092419338169
H          -0.26137539745874    1.01585020279626   -3.20052795246271
O          -0.51057987409447    2.81213670046126   -0.37232323029524
H          -0.57371729727523    2.21095161976344   -1.13616632431036
H           0.38519437681963    2.68500276004522   -0.01410839410221
O           2.05105569234243    0.46831144128061   -1.27867896392564
H           2.09224952624169   -0.47621579463033   -1.06243325915486
H           0.63743835957976    0.69116619231319   -1.95163238902603
H           1.91521765675866    0.90934179901382   -0.41051292142048
O          -0.93026158368438   -1.70564789252087   -1.43263971396012
H          -1.60211761930158   -1.52600070751790   -0.05386005137111
H          -0.82740847306540   -0.80912181918797   -1.81724634705064
H          -0.03233294302272   -1.96664561961248   -1.15834998712879
N          -1.83816358043515   -1.32699924859075    0.97971420807902
H          -2.37259192983296   -0.46294492724308    1.06687680975958
H          -0.87198349126055   -1.10168471077072    1.44709982592309
H          -2.30826871413720   -2.10726577567798    1.42556491459553
