    26
        -50.45189004  Gyration_radius:  2.46265939178 Dipole_moment: 2.890
 S           1.60350885863037   -0.60326313819693   -0.81785959905286
O           1.94529552838306   -1.01735910799687    0.52053087501224
O           1.37369419659500   -1.64322001277352   -1.76446965125367
O           0.35475080048219    0.30826358933780   -0.73334147466731
O           2.65170892919176    0.38664600438064   -1.34543033465623
H           2.71977987373273    1.04487546568747   -0.59106987907881
H          -0.45271203017002   -0.18310478742006   -0.32570164244988
O          -0.08561969932121    2.03634518261349    1.70973249985851
H          -0.21013565370454    2.56031772883574    2.50296707757295
O          -1.72205972839035   -0.84832267661683    0.14016927270466
H          -1.84048318845737   -1.41012606828747   -0.67478246170955
O           2.51111205431166    1.65064107998127    0.87883449271841
H           1.59412854432451    1.94900213464152    1.04596422576472
H           2.57960882008534    0.78179738556393    1.29530053332603
O          -2.14103249256026    1.78101527145403   -0.14693888931477
H          -1.70340586616121    1.94168890022799   -0.98539385775214
H          -2.24270849205179   -0.02503905570679    0.03799479998122
H          -1.46479195250137    1.97306420975818    0.52871399476049
O          -0.00699780725609   -0.52287994687675    2.30642318648467
H          -0.08910661427137    1.08317901047255    1.99960867507834
H          -0.77848420468360   -0.88031630318707    1.84686078275622
H           0.76282443347968   -0.83016986103394    1.79215950626323
N          -1.46111270134706   -2.24994593392533   -2.09117969253758
H          -1.64358625884803   -3.24553843996399   -2.05734036684055
H          -0.44693377348413   -2.12980747638593   -2.09233944388234
H          -1.80724158637077   -1.90774313525159   -2.97941261821537
