    26
        -50.46352529  Gyration_radius:  2.42745674487 Dipole_moment: 6.113
 S           0.00007564842128    1.82566505739472    1.22563298205336
O           1.07304157754783    0.88105103955088    1.42703578191677
O          -1.02460642710390    1.79982782012867    2.23939969406882
O           0.63530527904534    3.28589697401647    1.30587455994537
O          -0.54109008114447    1.72026501081311   -0.13681043883016
H           0.36957679803881    1.15976234517137   -1.29026819587772
H           0.07930881639539    3.67550981665141    1.97206430466709
O           0.84424627458127   -2.35225961425371    0.33947302605119
H           1.24244511849052   -3.10537663160128    0.77522621157606
O           0.83716148374827    0.74428491704327   -2.07204943370877
H           0.85083578455458    1.41946356845906   -2.75174734101307
O          -2.45207044034863   -0.10481143259538   -0.32525331964671
H          -2.28165718879497   -0.49059031939436    0.56753560690884
H          -1.94122502007645    0.73231860090129   -0.29593973985441
O          -1.25799972419218   -0.84875184376086    1.89639898209214
H          -0.37336856593942   -1.14353615597074    1.64868186795078
H          -1.16265759960851    0.07071978249326    2.20537133328637
O           2.57510876430723   -0.48384039462739   -0.23261607984297
H           2.19745116255714    0.08596858124108    0.47158618638589
H           1.57619041680398   -1.69492223710286    0.16817531141169
H           2.25525120533967   -0.08264943094976   -1.05187012540792
N          -0.70008700236441   -1.44438282663771   -1.64519852137817
H          -1.01514556647150   -2.06045716358229   -2.38530974976092
H          -0.07630345972495   -0.69127906985469   -2.00336087819975
H          -1.53379906110480   -0.93137434644950   -1.14214505749266
H          -0.17598818297214   -1.96650202709857   -0.90988697731394
