    26
        -50.46848999  Gyration_radius:  2.3966663905 Dipole_moment: 4.255
 S          -1.44688533135442   -0.08969827048241   -1.27219923087280
O          -0.05377224116964    0.32561549247557   -1.37112599168861
O          -2.39526040557787    0.89314499906670   -1.70594214194217
O          -1.58930678497494   -1.32604930839002   -2.26684955946471
O          -1.72270571511544   -0.62900790540882    0.06045736392600
H          -0.67195995517410   -1.63486264063775    0.69430050479318
H          -2.38355619616682   -1.10668664473993   -2.74182352536124
O           0.01311155063266   -2.19109312963692    1.15759131850666
H          -0.47382704182749   -2.87765985998662    1.61538659958005
O           2.61170353248227    0.52308874946694   -0.25817539559448
H           2.04082293988080    1.06696616892487   -0.81104341778160
O          -1.04918087587926    1.43265233543896    1.62063481055172
H          -0.92498976191194    2.13034896872997    0.93831786109267
H          -1.49483726576395    0.70342527284921    1.14638519623859
O          -0.69328740606916    2.80130887027464   -0.63890888998379
H          -0.33061482099939    1.98218139860286   -1.02242995754930
H          -1.57002945897989    2.86407953696071   -1.03153712056584
O           1.60652579510353   -1.77755604390322   -1.13944106848205
H           1.20756009226683   -2.23375495249122   -0.38760377152367
H           0.92070695195835   -1.16033734998113   -1.45082849793211
H           2.49456055765783   -0.38623569434042   -0.62462989773549
N           1.19794395035682    0.13939390079123    1.92332413972406
H           0.86904708489220   -0.83888257626321    1.80425505505702
H           1.68948068065660    0.26248424702396    2.80127780237872
H           1.82955291926543    0.36649359758461    1.08863160891752
H           0.31919720587226    0.76064084810724    1.87197619567300
