    26
        -50.44878086  Gyration_radius:  2.43960260977 Dipole_moment: 7.391
 S           1.50095003902355    1.13997698059569    1.25162510722312
O           0.34720181166629    2.00624129681156    1.31787900879782
O           2.74745036164805    1.78956101359645    1.05866430636164
O           1.53334235227068    0.22484200986958    2.48012101446455
O           1.29476895465171    0.15225075138077    0.05832006372243
H           0.99461301921729   -0.77897420184969    0.26935160320740
H           0.61878633114203   -0.24031651678664    2.57401188095189
O          -1.75131004499742    0.56918303725806    0.53270989854578
H          -1.18323050125051    1.27141466053591    0.89600916775982
O           0.52746801326968   -2.30513817444935    0.32868285606873
H           1.24833026576491   -2.84512053902299    0.00099583299520
O          -0.78409852973048    0.87357160302678   -2.08029941572403
H          -1.31723024963471    1.51254357371412   -2.55788708042101
H           0.01532489721363    1.36683621324409   -1.79818467561931
O          -0.68160163322171   -0.99772531001721    2.40349557214129
H          -1.23163421197012   -0.46916430403201    1.77657797221698
H          -0.39289505972287   -1.77378918110931    1.90366994697017
O           1.09204214783714    2.63225836657482   -1.19827690846921
H           2.02381818934649    2.45894278070058   -1.04028443479901
H          -1.49879639976925    0.52925345934930   -0.40524695249518
H           0.70758036121450    2.71475280380102   -0.31260419382679
N          -1.23093632967567   -1.98756319371019   -1.57817914751711
H          -0.97411528614797   -1.06546268849463   -1.92555128031220
H          -1.28393806074463   -2.61887119460189   -2.36734469788140
H          -0.16542051389907   -2.25091758198842   -0.41383181476079
H          -2.15646990349611   -1.90858567438061   -1.17442364967397
