    26
        -50.43579772  Gyration_radius:  2.64511570092 Dipole_moment: 7.823
 S          -1.24566644859057    1.99380547609474   -1.53314479602543
O          -1.08716068223496    2.49980839546413   -0.19707751956367
O          -1.46361904984543    2.91855327416193   -2.58161268008235
O           0.00245241327644    1.08918038089068   -1.84355513967039
O          -2.38973563866421    0.94414424735739   -1.55849728044488
H          -2.21755048995377    0.26577389159813   -0.85275748521920
H           0.68687510990587    1.30527226650893   -1.13830831372359
O           1.53631539306805    0.13768221901210    2.25969629827724
H           1.79808837796858    0.56332562291685    3.07737773991502
O          -1.89774762099428   -1.05518269939688    0.04968321813357
H          -2.62988464363285   -1.64641858247772   -0.13497911301655
O           1.44124488908658    1.85352010679360    0.12962406798655
H           0.64231122885098    2.38696746907668    0.28827000662268
H           1.49401310993711    1.23732335008062    0.88811180059987
O           2.54136012503890   -1.09562893101080   -0.03887617434784
H           2.30890255675187   -0.82838581749436    0.86191044418215
H           2.81502768585613   -0.28920595286294   -0.48312938534927
O          -0.91148872425188   -0.84739052800838    2.57325818887591
H           0.61748208030266   -0.19382621762397    2.39767328544232
H          -1.33328801669059   -0.79778141883442    1.69324171775229
H          -0.93905381382214   -1.76821393092273    2.83946946376355
N           0.10782540130771   -1.80483537332887   -1.38598383510388
H          -1.08800296449971   -1.40316791137308   -0.49392744192389
H           0.11321553144522   -1.05027417558136   -2.06524742980532
H           0.98591417689891   -1.72983723567425   -0.86629848702206
H           0.11217001348434   -2.68520795534812   -1.88492116025177
