    26
        -50.45856465  Gyration_radius:  2.45606856782 Dipole_moment: 8.134
 S           0.04711503881880   -1.75126574957589   -1.26073647528905
O           0.36092770647799   -0.33862525512386   -1.61713439420139
O           0.45974373085500   -2.67457509264862   -2.25508575684878
O           0.54326052466184   -2.00190550338333    0.09658345548356
O          -1.52691400762073   -1.79320829394676   -1.15810581115066
H          -1.78830295644187   -1.28474850352490   -0.36721684735825
H           1.92929661850338   -1.11070009484187    0.14132548454190
O          -2.29685275141650   -0.36169648904736    1.02494897164275
H          -3.11035471959934   -0.74253100930500    1.35763819156739
O           2.56586937214825   -0.36020993849414    0.08011209724318
H           2.44756677392683   -0.03829847270952   -0.81861009555446
O          -0.52362508850555    2.05884318835223   -2.65614861547020
H          -0.17239777118880    1.15772741703937   -2.55974929426217
H          -0.68949890368440    2.18404385275048   -3.59090049460221
O           1.46641584409018    1.21575947816240    1.84501601523775
H           1.96814209041187    0.62754012987323    1.20913576589328
H           2.12628941868045    1.67708282201319    2.36313876670282
O          -0.21899629700422   -0.99219684378283    2.40964089009925
H          -1.56748749736998   -0.63099968436152    1.66482187842743
H           0.12743942779228   -1.53765475827352    1.67001237469344
H           0.38044305974954   -0.23279341063377    2.46285873737390
N          -0.51716880395250    1.41780528027575    0.01618144668892
H          -1.39921149754620    1.06459651704748    0.40765675180769
H           0.16974596458058    1.60942709738440    0.76628661447096
H          -0.11228587478964    0.62737139367562   -0.62379420773422
H          -0.66915940157545    2.21121192307546   -0.60787545940868
