    26
        -50.46736883  Gyration_radius:  2.43112997938 Dipole_moment: 5.870
 S          -1.66268612692785   -0.38056958606812   -0.04152535985624
O          -1.44649520596216    0.89605183949669   -0.74847728837418
O          -2.50580675205189   -1.28405466556981   -0.77722161108351
O          -0.35782708504237   -0.99186799008657    0.25566741126150
O          -2.33124036781528   -0.05082594388841    1.31818478646770
H          -1.86550853804964    0.76444727910521    1.63663799071289
H          -0.16818168572377   -2.70449021761671   -1.87151889882027
O          -0.70012893507805   -2.16581792415092   -2.46246072287133
H          -1.49130480585138   -1.91625430629920   -1.92630167429614
O           1.76488201925503    1.42807461418589    1.86723586439013
H           2.18875196851133    1.89991697690034    2.58549131168088
O          -0.90156257862569    2.11854144759759    1.54301690458586
H           0.05049690234003    1.95683690372671    1.67625567247658
H          -1.05343300582733    2.03809230027963    0.58739290729071
O           1.98890004668769   -0.02658898842260   -0.52993368578862
H           1.20105105972222   -0.49897082892067   -0.18331544630092
H           2.15127336481485    0.66770089422082    0.12366964379813
O           0.75590169944297   -0.90643786303620    2.63319309517878
H           0.21696374729481   -0.99107732512965    1.81395443696431
H           1.26037065753286   -1.71851052699896    2.70267997827691
H           1.46243385172426    0.56445835668448    2.23903603697545
N           0.30781688357854    0.27918153124045   -2.52994153002825
H          -0.46166792380043    0.67569000355503   -1.90190541696557
H           0.42506575157454    0.80164554134273   -3.39043203209643
H           1.17081885514128    0.26518690566210   -1.92349043061021
H           0.00111617315675   -0.72035841778150   -2.69589194300093
