    26
        -50.47153669  Gyration_radius:  2.41207324644 Dipole_moment: 4.084
 S           0.94123550707069    0.57400922854357   -0.98262750117831
O           0.77144265008469    0.97966049523118   -2.46055270205819
O           0.12771483181565   -0.63095730057354   -0.75576060263763
O           2.34820385593830    0.29532838054447   -0.75529179547180
O           0.46009580006278    1.66493449582511   -0.13833823747252
O          -1.89909573217429   -0.60543727317475    0.88145148171533
H          -1.15818068592133   -0.61552420679722    0.22424260338778
H          -2.57613983448222   -1.18405619728932    0.52797312157813
O           0.26137143191049    0.58655406496644    2.25991351133129
H           0.35138832610121    1.15427673384387    1.46087523012723
H          -0.59194053854744    0.14650313500466    2.14767933414769
O           0.88642142811766   -2.90045768911498    0.34772942713027
H           0.62000825006009   -2.14774706553626   -0.22952284596130
H           0.07233710801425   -3.27388672942099    0.69025309002796
O          -2.17001684404746    1.92243858757297   -0.26030580451181
H          -2.36313498268650    1.14570059744293    0.28800671799251
H          -1.20280808188206    2.04489995189344   -0.16425428109951
O          -1.79644029932976    1.14854627817626   -2.73246954052516
H          -2.06188517695164    1.44047641876280   -1.81665864443833
H          -1.99599620099655    1.88473756396996   -3.31450817391217
H          -0.21576649196883    0.99385455175161   -2.61912181970941
N           2.26444059849465   -0.93901178379569    1.51096508779246
H           1.50175947997891   -0.36735156963477    1.98711705686851
H           1.86908585689197   -1.86869318893002    1.24033558338418
H           2.45334774602003   -0.42847128983088    0.58713070950885
H           3.10255199840764   -1.02032617942442    2.07573899398038
