    26
        -50.45043651  Gyration_radius:  2.52621169494 Dipole_moment: 7.535
 S           0.14567513044334    1.89951895922163   -1.79657320762734
O          -0.74421664476991    1.52016515610251   -0.71760581596793
O          -0.04680289726323    3.17521096610084   -2.37278492531143
O           1.60240788838570    1.74920222192453   -1.28510845034943
O           0.05417101860022    0.82335501097133   -2.90392428367842
H           0.04382071466624   -0.08792071338329   -2.49211467325352
H           1.65893157773734    1.40045584362395   -0.34442982902847
O          -0.15709396944502   -1.55821879743901   -1.89467161410616
H          -0.45575405111624   -2.09960287683866   -2.62783340616221
O           1.95925239051867    0.79776919819767    1.07716180310282
H           2.91127634473916    0.80157155568913    1.18870731992317
O          -0.58474063424884    1.45577498020440    1.98869250132629
H           0.37960930498555    1.39818237435572    1.99848730522806
H          -0.79993874095859    1.64082710558853    1.05831385689732
O          -1.43463674005129   -1.03874148405185    2.13209649492585
H          -1.12939057715470   -0.09229234368851    2.16099792737341
H          -2.12966829987195   -1.11428568978486    2.78703613241569
O          -2.15473408783509   -0.76740413087459   -0.48217715990416
H          -1.87836315955806    0.16164299885530   -0.57750271294407
H          -0.97987109520614   -1.34696442879234   -1.34619808602488
H          -1.98723428412782   -0.98178624308448    0.45763485280477
N           1.14534984977445   -1.65458395487992    0.79338720932961
H           1.67011295011901   -0.18020428409526    0.98356516526552
H           1.72668342739393   -2.43410557741458    1.07198098222552
H           0.28236759015832   -1.69679576446610    1.32866932320429
H           0.90278699408965   -1.77077007204444   -0.18580671965532
