    26
        -50.44730197  Gyration_radius:  2.44912363651 Dipole_moment: 2.654
 S           1.44131135482068    0.82144310752154   -1.15550100560196
O           1.08026170178727    1.97955151609370   -0.36489301890520
O           2.26006460886411    1.04542860355148   -2.28699798630697
O           2.06075823387486   -0.23439047179730   -0.21147569502430
O           0.13180880877236    0.13511125820014   -1.61649113582279
H          -0.27303772645803   -0.34008775238899   -0.81577725995537
H           2.01526213433346    0.15150004156393    0.75096574677460
O          -0.93033595904875   -1.22522789523222    0.27221544947602
H          -1.81663084932338   -1.15318145207750   -0.13159196192446
O           1.82811257593972    0.90371381935278    2.00916533569698
H           1.82922494683340    1.78768451487769    1.62342683632276
O          -2.80746921176388    0.05664524814303   -1.12215958856475
H          -2.37034751739797    0.11270064589768   -1.97519299942687
H          -2.51307620789748    0.84166721884076   -0.63002220940127
O          -1.48510743633060    2.17067415310017    0.17881612723314
H          -1.73556045566790    3.09504197976070    0.14114879174127
H          -0.53398306003266    2.13194847426628   -0.07640178712661
O          -0.75735629353033    0.56398100705912    2.33554312765903
H          -1.15056832900711    1.24389980398461    1.76520711253198
H          -0.87533411601681   -0.26101287425454    1.84080719740005
H           0.88240807016290    0.74127325660613    2.28170168522018
N           0.80921338875938   -3.03654315803736   -0.61081353325386
H          -0.48899709628139   -2.06760832540773   -0.00129538491093
H           1.12017557450631   -3.84400622505964   -0.08518923566891
H           0.75506236357304   -3.30155019729409   -1.58658959146701
H           1.52414050652906   -2.31865627727856   -0.52860504664904
