    26
        -50.47153663  Gyration_radius:  2.41194607506 Dipole_moment: 4.082
 S          -0.30386811725461   -1.40579422143022    0.33668487423627
O           0.99510970286085   -1.38011630005706   -0.33162128738091
O          -1.19276156942526   -2.46299532373789   -0.34867120230444
O          -0.18287537816401   -1.76558899192627    1.73845905851672
O          -0.96902650923234   -0.10162268121656    0.18875787689903
O           0.83298483804683   -0.35710199754977   -2.76602867548324
H           0.74190382559367    0.56307811096022   -2.47240859544207
H           1.07006405680558   -0.84341860995341   -1.94936668356333
O           2.12848514158148    0.83436864928944    0.54333352384880
H           1.68725989733970    1.46173147302805   -0.04507293318596
H           1.88572133477760   -0.04975300683177    0.18515010415048
O          -1.50241779630925    1.65753635497187    2.07690629447593
H          -1.48895098739005    0.95586704937297    1.38541173037648
H          -1.54870386462519    2.49233826111318    1.60741667083977
O           0.12288912547304    1.82486825150729   -1.18432609478663
H          -0.57596702220203    2.31447970851691   -1.62023430927495
H          -0.32162689968514    1.08631849393829   -0.69659643308333
O          -1.52160965660711   -1.49966379064614   -2.72777942748018
H          -1.51804862262345   -2.22454201313322   -3.35631216490543
H          -1.39307556178600   -2.09203764469472   -1.25539425736539
H          -0.65726035115793   -1.01910656664141   -2.85506728095875
N           0.75907062508377    0.41712789267025    2.74581433514843
H          -0.07500949337532    1.04769983026433    2.72351165388525
H           1.21368143662518    0.40264897398063    3.65196941712035
H           0.39326946035787   -0.55159689478662    2.46711706150973
H           1.42076241527686    0.69527499298460    1.95834675419996
