    26
        -50.45604781  Gyration_radius:  2.44519219292 Dipole_moment: 8.178
 S           1.32137235761588   -1.00976373118134   -1.53125099766003
O          -0.05435797660565   -1.42087145041443   -1.91537596438533
O           2.24221009863398   -1.05668218285753   -2.60987837547277
O           1.23702883888683    0.28313727071185   -0.83644636643820
O           1.77177788677907   -2.03398823883452   -0.42065034358812
H           1.37098177561803   -1.72668000878730    0.41551146668391
H           0.06941566456085    1.05190055949457   -1.65205227254327
O           0.52233874098579   -1.34692675686135    1.87215211026574
H           1.05983092417321   -1.60664998148385    2.62139288345583
O          -0.77788826067562    1.31704125111244   -2.08598951492524
H          -0.96796343816801    0.57888737679281   -2.67253649654596
O          -2.15487533562297    1.18974284364287    0.11626727889133
H          -1.65464693780547    1.32309698418052   -0.74133807658065
H          -2.89728059512698    1.79432740520838    0.09775729878539
O           2.13252215988379    2.02888805887139    0.92330192425395
H           1.95518059968602    1.34559408310607    0.24406884650231
H           2.23960264608330    2.85187555157603    0.44423248343967
O          -0.11686227248795    1.14307821055112    2.09035396028940
H          -0.79506746276118    1.29663609940630    1.41504283123803
H           0.33149120236992   -0.36147435380116    1.99015540216612
H           0.69794220293233    1.58646580321655    1.77036099622744
N          -1.53647052933716   -1.45882060962069    0.11360087038682
H          -0.89332132941695   -1.46699216725689   -0.81751096344400
H          -2.26135390871974   -2.16501280363474    0.05840334763496
H          -0.90298489333614   -1.63059029176440    0.90877147435432
H          -1.93862215828120   -0.50621890150069    0.20165619699356
