    26
        -50.44202907  Gyration_radius:  2.54538525274 Dipole_moment: 5.614
 S          -2.33719808670152    0.89311291043145   -0.43999643075726
O          -1.52822587369759    1.67586040686887    0.45622450831752
O          -3.34294767069718    1.56357752641402   -1.17488339890633
O          -1.35890212022041    0.14037828795516   -1.40844061294001
O          -2.96852738618300   -0.29215863174231    0.32673553043056
H          -2.24946296253423   -0.78076759920624    0.82036560097981
H          -0.47314874352602    0.61587695275963   -1.41303229094530
O          -1.08512738784785   -1.52379538407427    1.62997960752673
H          -1.46318071623573   -1.96252703324648    2.39437161912865
O           0.98507167130813    1.18331024228058   -1.50838127277540
H           1.14114880625779    1.53753108865404   -2.38529867593941
O          -0.18680032688107   -2.40233097719989   -0.86804569165509
H          -0.43084657139890   -2.31069503204168    0.06392364989672
H          -0.73296972945670   -1.75642855062340   -1.33185106801169
O           2.01234047185102    1.78169346127944    1.01284132240946
H           1.88869114490562    2.70102251409095    1.25626827438478
H           1.59562097480271    1.67413776106385    0.14172655224232
O          -0.04025437669097    0.67810465163512    2.41277189147948
H           0.84276723642138    0.91339594160876    2.06839373757247
H          -0.65216808180440    1.19214300216576    1.84848115770767
H          -0.58365250721756   -0.71990907258290    1.98476010455392
N           2.27132175805517   -1.03397317533107   -1.18416207162458
H           2.77105972560414   -0.99254443434073   -0.30502831831742
H           1.53326757002348    0.31157937278625   -1.42847550917369
H           2.89916135490719   -1.39332760994337   -1.89084530636345
H           1.49296183696301   -1.69326659963713   -1.07840290923723
