    26
        -50.45989884  Gyration_radius:  2.64700680226 Dipole_moment: 5.470
 S           0.63859743050779    0.33558806420584   -0.57853400512043
O           0.78813329595283    1.79036835869325   -0.52931957916284
O           1.07626031572392   -0.25349121599185    0.69649272941144
O          -0.72522501112357   -0.06620994337428   -0.90578332649956
O           1.58997673706478   -0.20218624242733   -1.66753826782742
O          -0.11555319202997   -3.75339154460701   -1.93999792632579
H          -0.83379140702915   -4.37083986541595   -2.08603209973737
H          -0.25889405071747   -3.36960774427066   -1.04510081721629
O          -0.97735358879653    2.26821460788232    2.91149807737540
H          -1.36168617356854    2.33743623895471    2.00003276002314
H          -1.41141838569517    1.52083169095580    3.32674624920182
O          -1.68325452292231    2.18912436198825    0.36445317299729
H          -0.81457335219558    2.29053033315672   -0.06883679033377
H          -1.99058676524669    1.34160241958014    0.02314161580584
O          -0.60035933462834   -2.41346486343638    0.33260676588768
H          -0.84798657897216   -1.58032097425995   -0.11261201542951
H           0.20191193652204   -2.17120289758169    0.80792192815639
O          -0.08531235661398   -1.37449623055221   -3.19175500746244
H          -0.03468728513145   -2.30861826015592   -2.88606746390460
H          -0.75116219793429   -0.95000142005082   -2.63156019630576
H           1.04424875928606   -0.66943640313048   -2.37973649878257
N           1.46266898719504    1.90842813287269    1.95714595918281
H           1.36992664888967    2.32131336075849    1.00241794897163
H           0.57658949845759    2.11904029958691    2.49610955577797
H           1.43505423534280    0.87414283743688    1.66280972886377
H           2.30847635728455    2.18664690932268    2.44149749254691
