    26
        -50.46068166  Gyration_radius:  2.42661337212 Dipole_moment: 8.204
 S          -0.15335019909575    1.74689819040994    1.00576278505483
O          -1.11878698335952    1.51846310182684   -0.09904364923813
O          -0.81379899308016    2.00280877261861    2.25117655693574
O           0.58787638904798    0.34219961936960    1.14836154898030
O           0.88110915709482    2.66582324676928    0.59219132882307
H           1.94635905843679    1.89469658729252   -0.31347549168783
H          -0.02818281422993   -0.12412001461686    1.79477682298191
O          -0.38825168262533   -2.06424025420338   -1.46589425839088
H          -0.36815762660462   -2.87763158730223   -1.97171029380851
O           2.48314670985625    1.44678104036024   -1.02286118772396
H           3.06840101583873    2.12421981851690   -1.36615059560553
O          -1.22070556057724   -0.63254406696281    2.64768035390976
H          -1.39523271686639    0.29213326298399    2.89070833203972
H          -1.84073551706319   -0.83803340246071    1.91175200181648
O          -2.38475332257915   -0.81111727089939    0.25048374624072
H          -1.87400695164477   -1.34478327312732   -0.37117736765546
H          -2.09718676029863    0.11177251450895    0.10277485460244
O           1.25324018059782   -2.21744602531363    0.58773805692079
H           0.23202477196073   -2.19240231334407   -0.70144891434895
H           0.84790809942847   -2.54866638463408    1.39341206662720
H           1.35676651348191   -1.26035347517934    0.72384943139347
N           0.21242903725302    0.54268486446340   -2.03419449217260
H          -0.39883012215334    1.01397773474381   -1.25775242937783
H          -0.04288267116040    0.89065522387046   -2.95176386872449
H           1.20307869070035    0.79873511420703   -1.78358749762783
H           0.05252230764098   -0.48051102388864   -1.96160781996310
