    26
        -50.44715054  Gyration_radius:  2.46305813591 Dipole_moment: 3.021
 S           0.37378882125753   -1.77185879169358   -0.67325755592195
O           0.48671015395497   -0.93906859885028    0.49111328774542
O          -0.42251130441147   -1.23875929524773   -1.74047360716969
O           1.78622799632258   -2.10440048251897   -1.16885042559288
O          -0.17439116184787   -3.16175326551230   -0.25330245304411
H          -1.08669238602478   -2.93881972622578    0.05264063563402
H           2.41203627739966   -1.38138385335078   -0.80557598890795
O          -2.34845243823299    0.66985904858110    1.31143706661789
H          -2.93450015466550    0.69555763656614    2.06974391922624
O           1.63857906289343    2.02700560882215   -0.21120146795188
H           2.04633014421444    2.69574543827731   -0.76363063960418
O           3.11438494734240   -0.20391716601277   -0.10862243976572
H           3.06363472826197   -0.44642229018649    0.81969071141567
H           2.56117234718804    0.61444343210470   -0.18724642521955
O          -2.36426420755502   -1.80199276747929    0.13243307214018
H          -2.33717193672011   -0.96102261137689    0.63891112884087
H          -2.27885233049610   -1.53578511740087   -0.78888818657954
O           0.16213167045998    1.15928505747810    2.10932854212701
H           0.64039608017480    1.80017945540283    1.57004277118298
H          -1.44866134183665    0.88877647352981    1.65403299377141
H           0.35775100511420    0.30814906615085    1.68464367755967
N          -0.75303176912406    1.55725533688329   -1.21984634079327
H          -0.63829624815642    0.59295075539013   -1.52843199561498
H          -1.13203917751161    2.08781374066899   -1.99454456574732
H          -1.45263831958345    1.54106422184135   -0.48539854086327
H           0.72835958158248    1.84709869416030   -0.60474717348293
