    26
        -50.47229292  Gyration_radius:  2.48034308918 Dipole_moment: 1.996
 S          -0.03950436475782    0.72120640683050    2.16179363484128
O           0.71430215701630    1.22424136451033    1.01726473849572
O          -1.45941812094639    0.65726447061075    1.88251753542703
O           0.51724904020304   -0.51706231024961    2.67108477186114
O           0.13858939763160    1.78446657845916    3.32349840904711
H           0.98597017006153    1.53476382697370    3.67636434511177
H           0.27225518711216   -1.63778095421357    1.55487746320739
O           0.19616745823836   -2.30312674897634    0.82382974688094
H          -0.00573884216605   -3.13810075086496    1.24896774527298
O           1.09088032889131   -0.19207018823185   -2.49590677692312
H           1.71128597943635   -0.32640820493819   -3.21249540153815
O           0.00987099208372    2.11230784350702   -1.42415493439934
H           0.44757453920019    1.43160803953645   -1.96650187207328
H           0.38460622938548    1.99755995343558   -0.52946384984367
O          -1.07484833938486   -1.55841134550377   -1.48595270670650
H          -0.33834387986717   -1.18523381369815   -2.00323851049561
H          -0.66732451931797   -1.90922794497122   -0.67151434726305
O           2.20416224775306   -0.62629203183208   -0.18046134281766
H           1.59593813258359   -0.35858739147527   -1.64834868003853
H           1.78460546561845    0.09998042135774    0.32643678529383
H           1.77449729284163   -1.42902428850532    0.14560066566226
N          -2.08266694431461    0.73057381180083   -0.65304168556116
H          -1.37160751905941    1.41033563855081   -1.06158742031883
H          -1.83176431126965   -0.23521437506339   -1.01951836597405
H          -1.91907876939359    0.72487816057384    0.39312907352480
H          -3.03765899758756    0.98735384237074   -0.87317901067072
