    26
        -50.47071362  Gyration_radius:  2.41591582255 Dipole_moment: 4.146
 S          -1.69769661593978   -0.42206902206269   -1.02543507681410
O          -2.05696215180049    0.70718801223220   -0.18348544926120
O          -0.64437354481406   -0.14286154191796   -1.97141097322591
O          -1.41358663599973   -1.61678535597558   -0.22789924298434
O          -2.98823308005074   -0.75586165331074   -1.87983667309309
H          -3.68133006245154   -0.70186337233647   -1.23082783366549
H           0.04243546612898   -2.17417989879580   -0.75721994813978
O           0.92589602056059   -2.24449863615327   -1.18802904818719
H           0.77348792334248   -1.84474520818483   -2.05171462493408
O           0.96426204273854    0.43565486086253    2.29640952262710
H           1.23366585183543    0.44532980589676    3.21544919005298
O          -0.08959563292916    2.42577871674059    0.50248467790245
H          -0.88272698154834    1.92517054920668    0.23079545499492
H           0.28833886676817    1.93961181239264    1.24737371446474
O           1.34172454011752    1.58147330481645   -1.55185834923197
H           0.61642522066220    1.04322745473624   -1.92873129302181
H           0.88829369066298    2.14155328416220   -0.87781734418172
O          -1.45974041115408   -0.48322565080531    2.12765553158058
H          -1.41540260404865   -1.16625904405539    1.42899897984294
H           0.04283395807963    0.04129466180490    2.28166004445992
H          -1.89954049151868    0.24241364088796    1.65798171007781
N           2.24822124156901   -0.28430133443354   -0.00595331047629
H           1.84487236416134   -0.07745290254623    0.92796397616260
H           3.25337324268474   -0.40234771411669    0.05200168933786
H           1.78429019068889   -1.15017945020935   -0.41611087446694
H           1.98106758226076    0.53793467114036   -0.67244445982197
