    26
        -50.45535978  Gyration_radius:  2.48608854447 Dipole_moment: 8.770
 S          -0.57431472810995   -0.35535491692317    2.22923913503369
O          -0.84198103789525    1.06921635624960    1.89262034748924
O          -1.41396720696608   -0.84920246780982    3.26015891162511
O          -0.58567324840443   -1.13242697488474    0.98122439742195
O           0.92172453147730   -0.38785542657596    2.72850862661537
H           1.50302584033623   -0.28277384208023    1.95004064081095
H          -1.91917431872122   -0.50804297785250    0.27580366677336
O           2.51989630249745   -0.09425924938182    0.54723040145830
H           3.43023903271505   -0.29568536954928    0.76673266173442
O          -2.59111020300461    0.12713879444576   -0.07093741110582
H          -2.69647438333211    0.74947949957022    0.65581911676704
O          -1.15813306601706    1.15866339522235   -1.96470784977751
H          -1.77155945209978    0.76344783573606   -1.27145784655249
H          -1.71113760851576    1.66020405800631   -2.56488828846814
O          -0.07492900268857   -1.29312482913824   -2.67763624364903
H          -0.82895612954138   -1.87987912025130   -2.58997308042781
H          -0.40514319309680   -0.39806897011282   -2.48894423889169
O           1.36418424166502   -2.10166164795307   -0.50809934257370
H           1.01513016756920   -1.87992356179141   -1.39359121410529
H           2.14949962802504   -0.91790042558305    0.07631845028840
H           0.59872853179347   -1.97703477461873    0.09099090250385
N           0.63622482448448    1.78486749873637   -0.00980447899992
H          -0.03067294074426    1.49709743631066    0.85844268760313
H           0.90596924423446    2.75949627575175    0.06237785055188
H           1.46515393246253    1.17117542305708    0.04034802352755
H           0.09345021188240    1.61240798140856   -0.87581582566230
