    26
        -50.46827138  Gyration_radius:  2.47348657177 Dipole_moment: 4.496
 S          -1.46017598802071   -0.69902826694303   -0.58631654452813
O          -0.25210216657627   -0.60889830699852   -1.43621366431897
O          -1.92021486417982   -2.05867819265314   -0.46253424538176
O          -1.16406935769701   -0.08891697920749    0.71385141580568
O          -2.57493942326362    0.12565045712916   -1.27065033008113
H          -2.31209466389124    1.08915817634278   -1.26311160631522
H          -0.82779540922215   -1.69062821060915    2.06268924739451
O          -0.61384901389634   -2.56719871714243    1.71903629105962
H          -1.23180400998914   -2.64267879853142    0.95438734276445
O           2.69124133491717    0.00892773891660    1.50701537098692
H           2.71993338567708   -0.09586545563931    2.45955675049575
O          -1.80266781688086    2.60137913489198   -1.42345070196637
H          -2.17290267368729    2.94961811953545   -2.23669854702762
H          -0.83318915889634    2.44533059295832   -1.60052564643976
O           0.68205918970878    1.85936247155036   -1.75374074555103
H           0.98048898913861    1.96476424867361   -0.83644250846044
H           0.41905556878954    0.91768069496790   -1.81424159660247
O           0.67080277675208    1.69122259805540    1.00004408741361
H           2.05210985469223    0.73067599041667    1.32698806510572
H           0.25155370086605    2.44130110255984    1.42444724407894
H          -0.05351676759693    1.01346008595954    0.87936997066654
N           1.37670178290167   -1.89221506635411    0.12277171621604
H           0.78704841371446   -1.37567925019619   -0.60589212774831
H           1.99850601381412   -1.20404042559864    0.61198110385561
H           0.67366630235778   -2.28318670640628    0.82278022313353
H           1.91615399018140   -2.63151703369880   -0.31510056395801
