    26
        -50.45553748  Gyration_radius:  2.41757505925 Dipole_moment: 9.592
 S          -1.94387718659465   -0.23626719432226   -1.11757242497557
O          -2.14968878818788    1.03804279227546   -0.44074115531417
O          -2.69144801865204   -0.42101882387164   -2.31785679045243
O          -0.38095942889949   -0.19572449599879   -1.57108599475963
O          -1.94929319724863   -1.36596306926218   -0.18878358530526
H          -0.67070358556858   -2.28016266847276   -0.41594410840219
H          -0.37354384465015    0.44763185704600   -2.27267970021657
O           0.20036648647510   -2.71377745828229   -0.62543121837427
H           0.19438272307279   -2.81868550199463   -1.57900258205519
O           0.60995732374071    0.49855248243072    2.23760865518754
H           0.82472920443333    0.45319389410220    3.16985133039660
O           0.11129497691538    2.29888648574882    0.06510379196568
H          -0.76392001648959    1.92098547731445   -0.17871658272558
H           0.31122841764924    1.92774625116501    0.93461096133519
O           2.05528982201507    1.33499171134067   -1.39080742710748
H           1.27794219308959    1.76774246308146   -0.94023420308733
H           2.77298333416668    1.96847485417867   -1.34784258104283
O          -1.90851260924787    0.05300377918249    1.99265180992552
H          -1.97009084794518   -0.72814860167247    1.40569542385181
H          -0.38255469857123    0.30569357051386    2.17697487999953
H          -2.19715669580394    0.75322990689618    1.38146680908718
N           1.82388423524853   -0.80818205079483    0.20877955973692
H           1.36860645445577   -0.36392782573252    1.04110174812216
H           1.16951915181385   -1.56536391881935   -0.17121832349758
H           1.94312360380306   -0.05739341614936   -0.51954332510851
H           2.71844102098107   -1.21356048990520    0.46361503281647
