    26
        -50.44124454  Gyration_radius:  2.53709668373 Dipole_moment: 4.487
 S           1.07227279701894    2.04352305670317    0.64585562694058
O           1.36905466028897    1.73074222560879   -0.71898670530330
O           1.55483582728173    3.24583902774026    1.21184564461627
O          -0.48254236658197    2.00812810379116    0.83649965118351
O           1.53797551024565    0.85616001573433    1.54884553893309
H           1.48196748971219    0.00270446552161    1.03958662466501
H          -0.94112868765644    1.39609106991726    0.16325832553651
O           1.22375674885233   -1.51182711415624    0.52411289927604
H           1.68514219783402   -2.10944336296065    1.11572997286762
O          -1.74417066571770    0.47693907133161   -0.76029842417675
H          -2.50749448153959    0.95838870009250   -1.08197773079511
O           0.75654342481394   -2.46162123623483   -2.05652404814285
H           0.01519930815342   -3.03008836862577   -1.84001378656019
H           1.08416135226176   -2.10814094381645   -1.21291452550792
O          -0.87584757910163    0.43765559383293    3.08055103629172
H           0.01295189869145    0.41500042898541    3.44367766430112
H          -0.88401586293651    1.18738297767884    2.46625146639624
O          -1.26816483726269   -1.43864721848878    1.15758207540976
H          -1.26081043296075   -0.87837786280553    1.96102879558940
H          -1.63124325712791   -0.87566121700381    0.45401187375030
H           0.24300847678154   -1.56511794443723    0.76418161833426
N          -0.06371780922891    0.23259698939224   -2.64908093378945
H           0.66871178999607    0.79513862691759   -2.21862061730646
H           0.27476615528694   -0.72801721188746   -2.70357862962821
H          -1.09156276842616    0.34573332296847   -1.58534779951754
H          -0.22964889870330    0.57491880420031   -3.58567562335924
