    26
        -50.44124454  Gyration_radius:  2.53693028352 Dipole_moment: 4.483
 S           0.84449512851076    2.23854920963848   -0.12673032916619
O           1.91638217760312    1.29183390011075   -0.18725873629207
O           1.11957710827398    3.61991616087697   -0.24990884136346
O          -0.21676916280515    1.85697992645441   -1.21432353906238
O           0.04729755070549    2.01439376018230    1.19866391590565
H           0.10276945891816    1.05742028768706    1.46704455940572
H          -0.19764192794733    0.86403167721280   -1.44153443630132
O          -0.30016906344602   -0.61072742030513   -1.83939016307417
H          -0.34844108293038   -0.66717825792923   -2.79460217025378
O          -0.18025602995513   -0.46217266781288    1.95384971806738
H          -0.54825421252660   -0.42708563132419    2.83894299293410
O           1.12243938698525   -2.82967776863919    1.26157909065958
H           0.33509943855559   -3.35235567984785    1.09868565792401
H           0.81452461902876   -1.97066725022960    1.59510078444744
O          -2.63375471498744    1.86964582208129    0.13398912467458
H          -1.93186047574945    2.07198627938125   -0.50316745124753
H          -2.38861436958963    2.33227268691765    0.93906990648508
O          -2.08105994583616   -0.78581551490527    0.25120601091895
H          -1.58471753548738   -0.88384516278962   -0.57818268091480
H          -0.94941308474220   -0.65676487548856    1.32709431237010
H          -2.47887365847280    0.10851085715557    0.21165146242010
N           1.99211425498397   -1.39607819383242   -1.07765679092354
H           2.29444850910547   -0.50055398466746   -0.69709391522643
H           1.90468974244189   -2.04977306773478   -0.29962589983442
H           0.64500650924333   -0.99662463841098   -1.55435667311139
H           2.70098138009759   -1.73622044375773   -1.71304589944517
