    26
        -50.45584588  Gyration_radius:  2.50634864428 Dipole_moment: 7.192
 S           1.76583244436421    0.76278246238747   -0.17490862840237
O           0.62411358113816    1.69003482656733   -0.32844789761328
O           3.00840680494553    1.40860712859393    0.05019493828844
O           1.38995812250664   -0.25618138678636    0.81902299908976
O           1.84551887649879   -0.01704996707100   -1.54870491136494
H           1.14775820506604   -0.69493227061776   -1.53878087179584
H           0.65037652905241    0.70848226188787    1.97347213299056
O          -0.02700152560327   -2.03272032621149   -1.45942990773739
H           0.11549448947471   -2.54967631961115   -2.25382439322966
O           0.08563236447252    1.35179260914840    2.45229414464006
H           0.16026264368386    2.16080477796667    1.93907845154726
O          -1.23468728825994    2.08168253890582   -2.31763510927315
H          -1.15200586521690    2.80810180580039   -2.93587374523527
H          -0.46106367209722    2.13423027864884   -1.73025159101284
O          -2.22390204126237    0.11093927105647    2.14705977122474
H          -2.21307960336661   -0.63800618885142    2.74427849996806
H          -1.42631480780415    0.65399599141823    2.37898311391236
O           1.52127298921049   -2.82634624732217    0.49235987848116
H           1.63617552267904   -1.86218405691961    0.67948736962912
H           1.29979140504871   -3.23266700768796    1.33161816762427
H           0.49908970759149   -2.46790824607957   -0.73929780549511
N          -1.42765776760903    0.11835626240189   -0.39597145473605
H          -0.56506692036179    0.74967489000998   -0.27630643523025
H          -2.01874879420585    0.60366530784543   -1.07323972616398
H          -1.11301154988703   -0.78222239718793   -0.77753126044205
H          -1.88714384005427    0.01674403170323    0.54235425033458
