    26
        -50.45896621  Gyration_radius:  2.53304147347 Dipole_moment: 7.775
 S          -1.99294369612881   -0.81207252735528   -0.77018908123396
O          -1.16596648971165    0.34831151816673   -1.17699445379381
O          -2.46296938646396   -1.58777238473120   -1.86941108999394
O          -1.22221358917756   -1.60568975304156    0.20369428219561
O          -3.22016321524512   -0.22442625363304    0.00468526475107
H          -2.87547362430085    0.49364012613950    0.56204200114901
H          -0.30971821672829   -2.44900313047469   -1.08434375963979
O           0.20117454756687   -2.54921511263330   -1.90597703385789
H          -0.47798034045927   -2.53782347009177   -2.58664624858614
O           1.00902054366837    1.67438657153846    1.88001887398560
H           1.33341937615037    1.94082377126188    2.74159539059483
O          -1.69090571952482    1.81284668747804    0.94860869353755
H          -1.43785512632465    1.53173475465878    0.05065579658958
H          -0.85660928707703    1.89783799058957    1.42889793152913
O           2.41447624092256    2.08119882691604   -0.47173706190429
H           2.04914742744258    2.83241627689645   -0.94190662274797
H           1.95930962800499    2.05122462677132    0.39089926380249
O           0.73607186523487   -0.99930118995019    1.70632195584536
H          -0.10424550643970   -1.21303376212439    1.19966722617208
H           0.85808562268560   -1.72533252543091    2.31933926991267
H           0.91005619711850    0.69993108114391    1.90168762472170
N           1.31099760869671   -0.33175524446360   -0.91889646368268
H           0.29945841031085    0.01607185956434   -1.04942795001343
H           1.96221444152797    0.46298663945032   -1.04569877203138
H           1.37808311074987   -0.67994202130939    0.04979457608213
H           1.39552916752652   -1.12804336535594   -1.56667962339112
