    26
        -50.46058929  Gyration_radius:  2.64025744638 Dipole_moment: 5.061
 S          -1.84549950280243    0.11149987214307   -1.96259024178996
O          -2.76169259104285   -0.96656548129446   -1.70371298522162
O          -1.93064594229347    1.23350324441174   -1.05356398486799
O          -0.45624561620601   -0.36348106159772   -2.07298980609735
O          -2.21864849352261    0.68282043363830   -3.40529457252828
H          -2.62748778877519   -0.06559442783446   -3.82968779584568
H          -0.75182378178602   -1.07579519690475   -0.65793802590408
O          -0.87904134854733   -1.50416270537314    0.22189562889472
H          -1.77117965939652   -1.85791348171313    0.15464316194433
O           1.85985366293095   -0.39320864596793    3.00541610501524
H           1.71793776400619   -0.88516036598352    3.81487984668527
O           0.01621291229523    2.35390179211558    0.19780089518701
H          -0.73802098542369    1.94555126755019   -0.31135981629711
H          -0.16018846523320    3.29538669632539    0.21081343327242
O           1.73113380065798    0.69000490447746   -1.07955320596475
H           1.32724236361672    1.42413733102136   -0.57937595944735
H           0.98768474759344    0.34492884987477   -1.62675438827070
O          -0.44587019593238    0.48869503180061    2.15050050919864
H          -0.77247522120461   -0.19732580775583    1.54511395962658
H           0.99100855404054    0.04822218859693    2.79427539282014
H          -0.30078674183845    1.26939025465924    1.58714842261602
N           1.82391076995297   -1.34146207393015    0.52597615410071
H           0.84788545618852   -1.67609160736118    0.45754441327051
H           1.88195705045640   -0.47125847348964   -0.13298009881821
H           1.99627219413906   -1.03281111070182    1.51790879294115
H           2.47850706808142   -2.05721142673630    0.23188415551628
