    26
        -50.46261493  Gyration_radius:  2.49098428914 Dipole_moment: 6.680
 S          -1.00774538463089   -1.92300820436198   -0.17274263775992
O          -0.09291084698821   -1.67402639090968   -1.28718056429459
O          -0.59976536262244   -2.95713253958600    0.71875592299715
O          -1.24807723268611   -0.64788899215775    0.54086280219603
O          -2.39794820346493   -2.29438308599080   -0.81338646331469
H          -2.59151902832231   -1.52400758498243   -1.36535434302670
H           0.00495442583208   -0.79435073817064    1.57678123399954
O           1.90128265107377    1.59669397855217   -1.31896378182961
H           2.60602436274178    2.13885730246283   -0.96095885738967
O           0.83833093711359   -0.79068607850854    2.10264644061924
H           0.91042353182563   -1.68952084728652    2.43332548222179
O          -1.81364330753122   -0.01836410774117   -2.29637777806094
H          -1.03636997530500   -0.55691710306473   -2.02499241038098
H          -1.83152830106703   -0.05027637617196   -3.25501099899975
O           0.35981221061204    1.89343468146975    2.47406882282585
H          -0.29070463712614    1.90141462502513    3.17851578656948
H           0.70470585325365    0.98223591923927    2.44364106387785
O           2.22170868433513   -0.78886162536011   -0.31926571258823
H           2.10655798323521    0.66088706132983   -1.03474776516376
H           1.96086033560183   -0.76538883078674    0.61622769516372
H           1.48803790568264   -1.25181891383594   -0.77057044340516
N          -0.44813164699385    1.73572193561671   -0.10554998529018
H          -0.82476888420065    0.74433681665386   -0.00057441458860
H           0.44297407310863    1.71681590341449   -0.67959426989227
H          -1.15338944773251    2.31809031401022   -0.54297254151293
H          -0.20917069575573    2.03814287109552    0.86341769703074
