    26
        -50.46058932  Gyration_radius:  2.64059638475 Dipole_moment: 5.062
 S           1.29247504469355    2.07449445427529   -1.14009499237741
O           1.29478779945442    1.80587328622493   -2.55309734593247
O           0.01434240461020    2.45620822606466   -0.58056009032765
O           1.88734405694781    0.96932440080197   -0.37034439360169
O           2.26247087614729    3.32213273168544   -0.91790766893510
H           2.84822844360927    3.26997720455750   -1.66732728502743
H           0.85453618125584    0.04538152622857   -1.19257316467325
O          -2.10095468605394   -2.73592636129858    0.86625839777053
H          -2.65176796408159   -3.33594129045306    0.36235953804087
O           0.21877262907001   -0.55373824644240   -1.65162403778110
H           0.22540979862298   -0.21430629788925   -2.55181410505347
O          -1.12466067190104    1.44602238856628    1.49165800735726
H          -1.55671514391462    2.16433264180208    1.95539597558747
H          -0.67241003779198    1.86500347383870    0.70761347448348
O           1.05909050580726   -0.11226172677706    1.87156278540747
H           0.22943110278330    0.38996980307852    1.97976969527848
H           1.52126139192627    0.35786049225720    1.13903226813350
O          -2.20434863440146   -0.37485593875104   -0.24691538561912
H          -2.28266145587283   -1.82440753653777    0.50496257679530
H          -1.98812085227925    0.30245549976168    0.41824252453354
H          -1.46093634230485   -0.35540520805420   -0.87203350949570
N           0.47600800743083   -2.22300631360925    0.48647284669184
H           0.72159604952062   -1.39124145743826    1.15169080399409
H          -0.49167961073771   -2.57039268456378    0.71409212604180
H           0.45816070313646   -1.81992698183227   -0.46563696201652
H           1.17034041434788   -2.95762609551438    0.56081793069588
