    26
        -50.44597436  Gyration_radius:  2.63425155991 Dipole_moment: 3.272
 S           0.68208625760337   -2.73664930561895   -0.13126951002337
O           0.58183599176585   -2.24239941899161   -1.47679618751033
O           1.60193457736310   -2.05526190390042    0.72192500348485
O          -0.69824405743968   -2.84138197710920    0.48962529958138
O           1.11416182790840   -4.24716591795899   -0.21519902348907
H           0.56322569015275   -4.61075373494524   -0.90318361446304
H          -1.05878073000369   -1.87053744842596    0.86045047483497
O           1.79141294801135    1.67329440048351   -0.39356101495013
H           2.71187300764460    1.46661653303328   -0.56038938600757
O          -2.00789696232412    1.01219935601418   -0.76744225296664
H          -2.89897579089867    1.29074574218342   -0.98040174290830
O           0.92865882591003    0.32672537790343    1.80386557423937
H           1.24122214206362    0.89494341341956    1.06901034567296
H           1.35291950626835   -0.53180098861365    1.64192665429438
O          -1.42707175122905   -0.62966411313000    1.26359439285233
H          -0.57231423445948   -0.20128250267286    1.56773796416538
H          -1.71689079426211   -0.11908832905533    0.47389252354178
O           0.33447641685756    0.36441101943049   -2.14652080328568
H           0.48036025278129   -0.58947611773918   -2.01691014730205
H          -0.57239143785966    0.53527821478290   -1.85076313893770
H           1.27519072204355    1.20819573075661   -1.10541604394391
N          -0.72071888946419    2.88403337677365    0.59424806957699
H           0.21521561926374    2.80022403036740    0.20718327392051
H          -1.56079620046181    1.77920109792801   -0.29446171232862
H          -0.66710006911214    2.57559127159219    1.55814395709530
H          -0.97339287812395    3.86400218349181    0.59071106486441
