    26
        -50.45002616  Gyration_radius:  2.51319258206 Dipole_moment: 6.055
 S          -0.22593540071532   -0.65626535781597   -2.47442827411852
O          -1.34155086724842    0.09588627807191   -1.94962102627738
O           0.00565570783980   -0.57564444192112   -3.86858178554966
O           1.04405624293668   -0.25909463391190   -1.66951179793711
O          -0.39548447499797   -2.13856745372832   -2.06046177472572
H          -0.59466338522188   -2.10489428948697   -1.08661295725708
H           0.98113541033744    0.67371143163243   -1.24128225590222
O          -0.69979410338800   -1.99526914571415    0.51618223176804
H          -0.91831540844496   -2.84523153437419    0.90283588120577
O           1.06104298870110    1.16210255514858    2.12366304271886
H           1.09752086626680    1.83237939098531    2.80705187084529
O          -1.83215848316761    2.10653493352959   -0.38883638439626
H          -2.49605295452060    2.68217009199182   -0.77057430251561
H          -1.73889529587000    1.34357719532904   -1.00768527165959
O           0.89918694098880    1.96007664562225   -0.46101465143951
H           1.10460290360058    1.70993863312601    0.46538406678513
H          -0.04351858482182    2.20704224610070   -0.45675287767444
O          -1.42944247164516    0.40059448869733    1.75574787863391
H          -1.72891009948459    1.04148971151915    1.09081671791390
H           0.11489504035093    0.85416128012964    2.08463159205959
H          -1.34894410244764   -0.44671065274879    1.28868677789049
N           1.80918367095093   -1.42701534036525    0.92572917308085
H           2.05318955427089   -1.15897623712516   -0.02236241041629
H           1.82810396151221   -0.58410665455808    1.49272350386511
H           0.28192318566594   -1.81360244166845    0.73042571352004
H           2.51316916856661   -2.06428668850120    1.27384731957553
