    26
        -50.45719663  Gyration_radius:  2.49333409648 Dipole_moment: 3.881
 S           0.66949759604438   -1.59476724098313    1.33527128484466
O           1.01693376421070   -0.61711609055683    2.36492565560453
O          -0.40950874344507   -1.11535909754494    0.50670325177080
O           1.82534210764149   -2.06029377089578    0.59444416777304
O           0.10556386079994   -2.86992624066898    2.10675504998756
H           0.88696615032396   -3.24370142200489    2.50283710229538
H           1.90401275010975   -0.92320679164699   -0.51381916883715
O          -2.18388482545029    1.39351371339100   -0.08483843856491
H          -2.59188027696736    2.16502713807602   -0.48041475810807
O           1.95323900084937   -0.22299985028056   -1.21397768588498
H           2.52721748108614   -0.57784249675310   -1.89580525808644
O          -1.83731311742969   -1.92076466631314   -1.58668130976572
H          -2.74307384568467   -1.88262322781871   -1.27507542360511
H          -1.28514876886094   -1.77450012079706   -0.79045647545466
O           1.32511853839731    2.31696401167335   -0.58332322930588
H           1.78141605820800    1.46966207800173   -0.74924341818795
H           0.65707502498995    2.36571483540749   -1.27491483169091
O          -0.64730404940887    0.46843854439054   -2.04735235321662
H          -1.13370447992940   -0.37166133480472   -2.15734874660311
H          -1.63761182316994    0.97259690995790   -0.79830916797689
H           0.22180233196900    0.17964169473143   -1.71984188186146
N          -0.08759198503343    1.58356112269803    1.57192685411453
H           0.55300450020253    1.96314640159385    0.82668323324859
H          -0.99985422506650    1.38681790111267    1.09324484803367
H           0.33277650635911    0.66655518120099    1.93469295420087
H          -0.20308955075148    2.24312279883414    2.33391773527237
