    26
        -50.46919485  Gyration_radius:  2.46732415554 Dipole_moment: 3.376
 S          -2.36639256946102    0.12480589782685   -0.37617731035973
O          -1.71175387954640    0.10663660184173    0.92580979458984
O          -3.72449041741283   -0.30827085463373   -0.38069127013908
O          -2.38427502680640    1.66139822186053   -0.84037530591048
O          -1.50327652088107   -0.52473674226562   -1.37396295374056
H          -0.37530212642404    0.62104326453670   -1.66237093111609
H          -3.29431792424123    1.87365192922564   -0.66796374722918
O           0.09034377224951   -1.56300164542781    2.01462161724650
H          -0.67967893466843   -0.99256543459175    1.82196122496269
O           0.35092078222721    1.28116944491195   -1.76704216198586
H           0.03321533070353    1.91810502742987   -2.40835514514697
O           2.05872643569166    0.34269492857657    1.70443172226293
H           2.62496693646586    0.76462358874841    2.35055031104903
H           1.36319938995917    1.01973834400372    1.45112868070087
O           2.38265806117386   -0.40385987546241   -0.91254549371035
H           1.85579832454850    0.28927276785158   -1.34279387125924
H           2.46860139407164   -0.12746284370587    0.01937664113509
O           0.18490796634109    1.94644049970382    0.89607223445028
H          -0.59802394005368    1.36946456338982    1.01592860236355
H           0.84219757131056   -0.95053184718094    2.11569214109217
H           0.31445928072358    1.96867373214986   -0.06716795614865
N           0.41810487703548   -2.11794963533256   -0.51688546562367
H           0.45194414705416   -3.06818487775506   -0.86646545034915
H           1.29170146212493   -1.56357303213990   -0.76552116525740
H          -0.40293768805704   -1.59232325384579   -0.91484623951679
H           0.30870328584800   -2.07525875974904    0.54759147759212
