    26
        -50.46626562  Gyration_radius:  2.38226982594 Dipole_moment: 3.610
 S          -0.12541894411704    0.85191573120872   -1.26253094482796
O          -1.30532426172492    0.34336775629240   -0.33954501948757
O          -0.49842972356782    2.21512856950759   -1.60252857502315
O           1.06696595975192    0.84813378525735   -0.40361723718339
O          -0.01139750566026   -0.07709278321210   -2.36476398005510
O          -1.42271315477417    1.22121265915288    2.27658927376740
H          -0.70628023566807    0.54069567143456    2.33459838282282
H          -2.00870532820588    0.88001471345625    1.59109112052629
O           0.57612874206720   -0.47991833890357    1.86167529710256
H           0.42213372335876   -1.39372946057503    1.58557779346118
H           0.83749042763545   -0.01784427170251    1.04040791955728
O           2.03961318527399   -1.50241093043538   -1.44504033912315
H           2.41528403889124   -0.77894168003641   -0.93183965058354
H           1.34316045112770   -1.06166609705838   -1.97326732127608
O           0.53987899868740   -2.83261157956167    0.26661851104380
H           1.17625416023849   -2.39476807214270   -0.35956542528690
H           0.85224224547737   -3.73016669006622    0.38752840146382
O          -1.56233767568934   -2.03463348259105   -1.25501422613841
H          -1.08609656391469   -1.70605417603341   -2.03143258110206
H          -0.89928436383650   -2.48038262343604   -0.68996043305585
H          -1.53834496834886   -0.58876999732396   -0.63010758217989
N          -0.02424707524815    2.88194892913862    0.81567295280316
H           0.14874757281941    3.83336538405492    1.12339863890281
H           0.83763724997465    2.32210998754942    0.71332578251176
H          -0.66581012523642    2.32784481689216    1.48339099800573
H          -0.40114682932194    2.81325220912563   -0.19066175661725
