    26
        -50.46182372  Gyration_radius:  2.430928802 Dipole_moment: 6.290
 S          -1.50283040099367    0.12049382541818   -1.16299410412920
O          -0.45261472645200    1.11315310701896   -0.84614124290491
O          -1.42876234870288   -0.33912138288944   -2.51709140842670
O          -1.39173157762399   -0.99084170702027   -0.20019446526688
O          -2.87504527450400    0.80827084748441   -0.91521266221551
H          -2.77301414733436    1.26761011754792   -0.04957728669898
H          -0.52105645851948   -2.25177097912213   -1.10449202824708
O           0.08425811751169   -2.46367344241594   -1.84128445794146
H          -0.36080538563581   -2.03740549565846   -2.58917693308860
O           1.90793627884272   -0.35891784324284    1.66264670839943
H           2.38266444333840   -0.82862283940752    2.34939430976719
O          -1.88783935459229    1.90249380925374    1.26821183998509
H          -1.17506956178522    1.95457639085091    0.61119220816510
H          -1.60095147932949    1.22108532114513    1.89397035463650
O           2.13562229880501    2.10191216290126   -0.01059127135125
H           2.11695236065432    1.59422796803062    0.80683504044529
H           1.22404930349806    2.15408152897318   -0.31671258928666
O          -0.71613235218029   -0.46596239723522    2.20839114470739
H          -0.99575390445620   -0.68079892210520    1.27116914641524
H          -1.10578385571801   -1.14803730959111    2.75791099074883
H           0.95847358652064   -0.35731110718787    1.92038466372442
N           1.62504684627165   -0.47788708746238   -1.05199331712071
H           0.84162330794836    0.24118709248422   -1.05523812822208
H           2.40259894718003   -0.13176006673180   -1.60686621952351
H           1.90933824899964   -0.57048556980907   -0.05665970736665
H           1.19882709828681   -1.37649603122784   -1.42588059520937
