    26
        -50.47015214  Gyration_radius:  2.4857259659 Dipole_moment: 4.009
 S          -1.32714896360459   -0.48543738487731   -0.18379076430384
O          -0.12467985589279   -1.20649611724745    0.21485294978330
O          -1.81485353250178   -0.96116127884640   -1.46380752776228
O          -2.41820941688122   -0.74614505209246    0.91682387595244
O          -1.12105277981416    0.96158590292246   -0.16396450463042
H          -0.98644794940547    1.36831787837609    1.50359739415134
H          -2.56410503413197   -1.71193425695859    0.86062700931628
O          -0.78901271732180    1.41959084875923    2.45731690906130
H          -1.48121325318887    0.91373102854019    2.88736206346406
O           2.83867930673222    1.67058223251765    0.32312529488296
H           2.92693033348840    2.47837233060140    0.83187906719463
O           0.67525615306784   -0.95231229951572   -2.43126348607871
H          -0.29689571298034   -0.98451664307422   -2.31733369671352
H           1.01099489598140   -1.44686127368200   -1.67481879273945
O          -2.04550938127438   -3.20789039021233    0.05480112235238
H          -2.16941381351092   -2.78804393497430   -0.80866319467875
H          -1.11224718267132   -3.08119006130602    0.26494371779671
O           1.51912912988976    0.08016647378208    1.89454576595847
H           2.42861070838634    1.00255330814252    0.95045851045993
H           0.83400509110496    0.63497851811650    2.31288969385050
H           1.01349200336638   -0.51017307559357    1.30402514904733
N           1.01487267310190    1.53583882741321   -1.56657200126138
H           0.12210736701730    1.47130580132504   -1.00536572152348
H           1.82050380462397    1.63655986196596   -0.87469015424500
H           1.06279346835560    0.60359904272776   -2.06001477400437
H           0.98341462811554    2.30497971317368   -2.22696391532182
