    26
        -50.46580352  Gyration_radius:  2.55582753536 Dipole_moment: 3.583
 S          -2.07381828136445   -0.72449079078304   -0.28503567338656
O          -1.31072032429733   -1.82995875039009    0.28323226811757
O          -1.51646258304070    0.55481037287014    0.12453956328132
O          -2.27893650139252   -0.85491999739379   -1.70976528276741
O          -3.52177180379916   -0.79235370850488    0.36385805855354
H          -3.97489190019223   -1.33755649916478   -0.26974117304121
H          -0.90448710195278   -0.84223408497742   -2.64007454469067
O          -0.08130696677362   -0.67966437461188   -3.15584865831298
H          -0.37276291366058   -0.42992486186080   -4.03449349564729
O           2.41831580097050   -0.53376515534416   -0.07020068284656
H           2.57882137356397   -1.24902795692049   -0.68772219803345
O          -0.21374531044676    1.40281393963276    2.33002260016049
H           0.49720546066150    1.94735139692863    1.93156574399496
H          -0.88811631287602    1.31327759186259    1.63264258422093
O           1.83072354793250    2.42088485504635    0.85782619331482
H           1.43222061396504    2.25799701027402   -0.00951675095386
H           2.59118369278150    1.83623175551707    0.90627153134162
O           0.68019702194929    1.03842365687947   -1.26153205105487
H           0.52436447587627    0.53345363650234   -2.08687790999545
H          -0.16080962670425    0.94419087826126   -0.76355600485704
H           1.81037981102594    0.09480151389109   -0.54830501566861
N           0.60178858345543   -1.03098106779221    1.84274531370027
H           1.42120889940092   -0.91755858829796    1.19902557387446
H           0.81206747243288   -1.65484501784466    2.61312683689714
H           0.30337601899313   -0.05735777158649    2.18399253493657
H          -0.20402313652094   -1.40959800221014    1.25382062886590
