    26
        -50.45971322  Gyration_radius:  2.45391475355 Dipole_moment: 7.643
 S          -0.21456038618893   -0.56202321023476   -2.32524702797040
O           1.22959423999452   -0.34341496098235   -2.11019925096670
O          -0.51852465892484   -1.55468759886603   -3.29728503182608
O          -0.84039524126172   -0.84483137176943   -1.00609251859516
O          -0.80679580478571    0.80537318795964   -2.77854158328362
H          -0.53585881593442    1.43089480812821   -2.06745918236647
H          -0.33920680953644   -1.78390320278927    0.12823100173691
O           0.05845522849942   -2.28676876407232    0.89879156684131
H          -0.18462455215365   -3.20375555021193    0.76660174864241
O           1.21328861434478    1.45460099396765    1.55670430982627
H           1.45787539614062    2.09398458129472    2.22615346777986
O          -2.40329050557434    0.75836243284360    0.27635752198355
H          -1.86569225389122    0.12271191357759   -0.26811458247424
H          -3.29470674354514    0.72226481223683   -0.07142791100787
O          -0.32090269375290    2.29386378974554   -0.65550139093492
H           0.37231348171791    2.05838169530093   -0.02007603831168
H          -1.15522137893983    2.01973676267580   -0.23892195102738
O          -0.78252103119669   -0.01963525005619    2.35025228869626
H           0.43825055904903    0.93658953886995    1.92450816863754
H          -1.50471570807508    0.28813011856944    1.77512450561891
H          -0.56027775241934   -0.90779015132296    2.03118081121810
N           2.14190406226968   -0.70297603866707    0.20579888650393
H           3.12099277170916   -0.96228411289016    0.18303980367183
H           1.98930846166756    0.17094370823932    0.74109148780694
H           1.75613531850308   -0.53253457394517   -0.83416555051163
H           1.54917620227183   -1.45123354761216    0.60919643032102
