    26
        -50.46108169  Gyration_radius:  2.58369068938 Dipole_moment: 4.634
 S           1.08906967098539   -1.74277334752867   -1.15308877499508
O           1.44197491611422   -0.46418321132598   -1.73324201493726
O           1.98192362359929   -2.17451244214511   -0.10393184531102
O          -0.31690898216644   -1.78875513129955   -0.74382516606106
O           1.19325414054585   -2.81232310267215   -2.32287451311629
H           2.11533045031830   -2.73315530470525   -2.53999011171662
H          -0.73747832069233   -1.50632377677886    0.79432101185346
O           1.20292612153820    1.42390632939016    0.05107123957914
H           1.37666340121458    0.84306341024365   -0.72676583127691
O          -1.03078821739713   -1.21813816792390    1.69673976927295
H          -1.38464880226464   -1.99975292731319    2.12257008636212
O          -2.02891330934849   -0.15418740656081   -1.86357028731851
H          -2.75685919654962   -0.69266913448553   -2.17642603002830
H          -1.32120660444362   -0.78362245569633   -1.58684637803043
O          -0.37870211516041    3.67327157848326    0.85218663547955
H           0.38241359929304    3.15285519251881    0.55631580744714
H          -0.05727228177290    4.56176963313954    1.00711066584581
O           1.67720056701447   -0.41717778550322    1.86422596150825
H           1.95165355709108   -1.10431910143147    1.22185453789131
H           1.52583742919389    0.88709418115293    0.81848937287215
H           0.78249589891824   -0.67067594350278    2.13004977188852
N          -1.37826233946005    1.15138566366121    0.37734877686419
H          -1.71160185776653    2.06760149584322    0.67393222843956
H          -1.49065490663246    0.42490867898313    1.09815403088998
H          -1.81028369281711    0.81955426983787   -0.51127715991232
H          -0.31716274936896    1.25715881564614    0.19746822650689
