    26
        -50.46283888  Gyration_radius:  2.57939641758 Dipole_moment: 4.828
 S           1.03850055412989    1.43504449344458    0.58729429968488
O           0.13157162624364    1.45200076402199   -0.55821754861613
O           0.34153868668176    1.11521848279761    1.81882576135294
O           2.14289988663723    0.50722615603814    0.32475581351565
O           1.63809095412057    2.86495894205114    0.74840646222375
H           2.12354620179636    2.98979418476738   -0.09162425065345
H           1.78847330270043   -1.06088963545522    0.42858635910311
O          -2.07633827256555   -0.05518152459730   -0.98487349580265
H          -1.55035853522919    0.75558746995898   -0.85275470429684
O           1.47301546547220   -2.00222395691391    0.45577196849069
H           2.18660015391213   -2.50625151246801    0.84942412215816
O          -3.69592294414881   -1.26855335114125    1.10278296952183
H          -4.64095367111434   -1.18577744990513    1.23495589083648
H          -3.48869480567798   -0.79731647622995    0.28509758608572
O           2.65743978202286    2.27464867357448   -1.62010472659217
H           1.84312308320878    2.16965276979927   -2.12115409014726
H           2.75756737886590    1.45667382033202   -1.10431388713250
O           0.31415122545964   -0.88229862183261   -1.96471857193879
H          -1.56869956444365   -0.53608151969006   -1.66228884483282
H           0.43065629762292   -0.01421301272334   -1.53985372908996
H           0.81433628729822   -1.50462036488681   -1.42658804840613
N          -0.93822303534351   -1.06792485627203    1.23736945701879
H          -1.41769324865112   -0.78013537889940    0.34301041628371
H          -0.50609704075614   -0.18013076346708    1.63279756395042
H          -1.64705899165053   -1.46931495093471    1.84919277945407
H          -0.15147079662131   -1.70989238138058    1.02822043780226
