    26
        -50.47250002  Gyration_radius:  2.48705323042 Dipole_moment: 2.847
 S           1.61836741121157    1.48274799970189   -0.57064648484565
O           2.11188242682059    0.37653419171525   -1.38133292721607
O           0.17181518130780    1.58105036183778   -0.61292641324439
O           2.15760624597801    1.45485369240775    0.77569574122584
O           2.17041136033735    2.81098077116153   -1.23480681216763
H           3.08859170451103    2.76905642852395   -0.99061697550478
H           1.53372790025834    0.27854859159776    1.65220796221351
O          -2.59615935309935   -0.67459177148279    0.62863888708240
H          -3.46684770433999   -0.69759072875160    1.02592034702999
O           1.08864762129409   -0.41765509945325    2.20281819020654
H           1.71116927287962   -0.64365707506019    2.89555031176147
O          -0.32469115326786   -2.22983155601055    0.72160032984782
H           0.22196548317023   -1.66584715971797    1.30074067019429
H          -1.21807198730087   -1.84270636127339    0.75511777681404
O          -1.78319790808449    0.19579736224392   -1.85673268505033
H          -1.20095834619244    0.90852860772524   -1.53452648691781
H          -2.26500106329448   -0.10837194814037   -1.06581261611352
O          -1.12389064795041    1.19352107112786    1.69052739663119
H          -2.10243520247188    0.07536523890893    1.07159526237090
H          -0.44001483694610    0.70131158095163    2.16800114001047
H          -0.67451710977319    1.51245069597443    0.88200749480829
N           0.27164540913154   -1.43722055544718   -1.72561422734263
H          -0.59938506335087   -0.86790162027864   -1.95073528436609
H           0.10842721432362   -1.88248264266988   -0.77501915406524
H           0.47199284237803   -2.13005664021784   -2.43740450381255
H           1.06892029251776   -0.74283342530388   -1.63424693951492
