    26
        -50.44682892  Gyration_radius:  2.55627511077 Dipole_moment: 8.683
 S          -2.10101457816495   -0.60867481294495    1.87574837479970
O          -1.10296131104946   -1.37416956183365    1.15748484120841
O          -3.19963310693484   -1.31042600087351    2.41232712008454
O          -1.40192551696508    0.21711000168520    2.96218416699681
O          -2.63742895538428    0.47266983903838    0.86989551135993
H          -1.92261204088963    0.80091420949510    0.29392560566281
H          -0.57546799322602    0.65390628313168    2.54908286196736
O           1.59961329581267   -1.55883343429370   -1.73188498436554
H           1.83334766305038   -2.44060087670722   -2.02411221473139
O          -0.75104454576346    1.52570398678905   -0.77240147207644
H          -1.09899981056296    2.36018865170910   -1.09008722908019
O           0.54859866127607    1.22103106401783    1.69251924158384
H           0.12597969586302    1.46825102538207    0.85591741927834
H           1.09320627029657    0.41610132260021    1.49316951536812
O           1.60162433889510   -1.09420359881899    1.00270976803295
H           1.75891764696263   -1.25250733490692    0.05506463284583
H           0.72342842447949   -1.46775830790642    1.17836903576616
O          -1.02124446313267   -1.26163007980189   -1.51380156358500
H           0.60919254608309   -1.51609518088452   -1.73873830025533
H          -1.12994877574488   -1.47069823516366   -0.56582892417038
H          -1.17530398276985   -0.31277072579113   -1.58257988199802
N           1.74142639190368    1.32794534560698   -1.50979841699162
H           0.20639213147556    1.44818520492392   -1.12687012419648
H           2.33064002171284    1.53882478626885   -0.71285884480143
H           1.87608725874350    0.34374396647699   -1.73297434974317
H           2.06913071402306    1.87379248280754   -2.29646177896643
