    26
        -50.46283882  Gyration_radius:  2.57955117358 Dipole_moment: 4.825
 S           0.05816525487080    1.86421705240380    0.07012558628760
O          -0.19115167618576    1.06274154295661   -1.12591386495069
O          -0.93015085483098    1.61086743195844    1.10154060841994
O           1.42339073082828    1.62202795802259    0.54653507986536
O          -0.05490389159440    3.36795375818732   -0.32504385968260
H           0.66289159886850    3.47194713704069   -0.98145847317006
H           1.67281763831377    0.21426314062036    1.28901140583414
O          -1.24934581797404   -1.42275111785967   -1.30444391973365
H          -1.17959139711153   -0.46070566558023   -1.44958850614209
O           1.75390529061796   -0.69479946461149    1.68063173792659
H           2.35390303783619   -0.60760177476476    2.42264940624824
O           2.03445475942464    2.72588215968853   -1.81487794900621
H           1.62748609056728    2.06756997126028   -2.38589658852856
H           2.19528570357716    2.27745617281063   -0.96738258135146
O          -3.03324550044328   -2.61886681833901    0.65473817415998
H          -3.89518810599899   -3.00791820839705    0.50283571892067
H          -2.68264475919096   -2.37616648420792   -0.21231580273225
O           1.44398402394681   -1.12443402393706   -1.17869215829110
H          -0.35828959274811   -1.74234636770664   -1.53195284020669
H           1.02970095184465   -0.24375159434571   -1.19867063293440
H           1.85107127686803   -1.20083105454993   -0.30950435085534
N          -0.91011842476294   -0.97549206207787    1.33089172240199
H          -1.60759488390189   -1.48501787539794    1.87106227858894
H           0.06489161121758   -1.13961019795263    1.64287807575782
H          -1.01973957670952   -1.26191466228631    0.32165186722872
H          -1.05998350731516    0.07728106710796    1.35118989592942
