    26
        -50.45480243  Gyration_radius:  2.46557809628 Dipole_moment: 8.352
 S          -1.84743606861670    1.29213996400584    0.21555597391946
O          -2.26038191869306    0.48344658955160   -0.93277988111823
O          -2.82699363660749    2.18891110000895    0.71966603416345
O          -1.22110563354675    0.41944845749843    1.23063940363651
O          -0.61559789983355    2.16358862559752   -0.34128359715223
H           0.19668708487264    1.83369907259934    0.07657533934072
H          -1.07342538897754   -0.88321040811923    0.48099683166296
O          -0.92235877693833   -1.69526455130696   -0.10661299486292
H          -1.69687942906263   -1.67473805298075   -0.67897799468763
O           1.82746536085960    1.20382385488399    0.43223988477100
H           2.45200973940987    1.89608695984938    0.64989343700363
O           0.96486916026719   -2.63942599715767    1.66505129656534
H           0.23840251675881   -2.48703776254225    1.03967661628483
H           0.63164270047696   -3.24515927360825    2.32888369144758
O          -0.66586449724753    0.98811019388370   -2.86354825002701
H          -1.40112465793408    0.78932195785428   -2.21139892733092
H          -0.49479628316258    1.92488987581485   -2.73377209629252
O           1.05244557465697   -0.03192017523019    2.53460228300292
H           1.15513095101925   -0.98258293013238    2.33745875369282
H           1.60648596947456    0.73030641026594    1.30108024190878
H           0.12061263191778    0.17300851782380    2.32426643320904
N           0.98500641936962   -0.50160508415177   -1.50348289382507
H           0.39780732338762    0.11880932950961   -2.16351133004336
H           1.63599548200851   -1.08978562714698   -2.01202137208509
H           1.48070421357501    0.11175717902013   -0.83022914496857
H           0.28069904253856   -1.08661824576456   -0.95896772823326
