    26
        -50.45871049  Gyration_radius:  2.48548770243 Dipole_moment: 5.815
 S          -0.96053572430416    0.54799050849283   -0.32088456562396
O          -1.39240517700131   -0.43811140041628   -1.43153904089477
O          -1.42546958015962    0.04601294053827    0.96840290043191
O           0.49953154678867    0.63298288525406   -0.36074504367571
O          -1.56721521049132    1.85002547627258   -0.58667167213979
O           1.06662763560276    1.29272498886704    2.08296106650730
H           1.00157031149664    0.41079679295071    2.47700777736534
H           1.08253456422107    1.09471313844322    1.11538154421797
O           1.01124989115178    0.24946301494371   -2.94366445143117
H           0.97319435868103    0.50387273575799   -1.99982651617335
H           0.09156579943579    0.16673237988309   -3.21009026458964
O           1.91367374650065   -2.23233399616889   -2.45602951254121
H           1.80610050803456   -2.73060642769988   -3.26754240201601
H           1.72696742758561   -1.29201715167277   -2.67976418094067
O           0.35275301580163   -1.48604359627174    2.05118126368356
H          -0.36786093826852   -0.92871905493056    1.66563634292906
H          -0.08424428143891   -2.17797312232900    2.55069668699779
O          -0.01834198977827   -2.41781383449063   -0.62063863676767
H           0.74880255626297   -2.43484702538491   -1.24069464528217
H           0.33766027239826   -2.13529037010660    0.23846169378244
H          -0.92029724146761   -1.30741300781747   -1.16365781329170
N          -1.18423190104930    2.59171678845889    1.85016092818938
H          -1.15157883362680    3.58176496622189    2.07534572438827
H          -0.23724113225842    2.08826780141546    2.04522247536766
H          -1.91617911703077    2.10888503653251    2.36610231340551
H          -1.38663050706572    2.41521953323947    0.79518804807932
