    26
        -50.44682893  Gyration_radius:  2.55618151618 Dipole_moment: 8.686
 S           2.55447856383269    0.54561888479817    1.21617029356435
O           1.75694985336704   -0.63910032243899    0.97451028134390
O           3.57959398119999    0.45629535881832    2.17970813484231
O           3.10980562593496    1.04791507891105   -0.12185629811943
O           1.55075665278877    1.67303120138289    1.65238602826571
H           0.70883217462166    1.60040815268342    1.16615039120554
H           2.35239746552028    1.03272274902408   -0.80799289799125
O          -1.72547335694523   -2.23718148754314   -0.02381164762634
H          -1.85280135502089   -3.14899283362013    0.24065535412302
O          -0.82817926413823    1.63792393340039    0.34736188414499
H          -1.20576125739533    2.51356667639817    0.44231347062319
O           1.06089269430032    0.96604355573014   -1.61137816661025
H           0.37803960449283    1.31282631972232   -1.01718987130043
H           0.89616934023047   -0.01044487370965   -1.67213953241171
O           0.65147380938262   -1.62013338189279   -1.31305794434019
H           1.19351291615830   -1.54325224004632   -0.51193833474816
H          -0.22570462667191   -1.90241797773637   -0.99892208495962
O          -0.73118086917769   -0.77624521301758    1.94634484911578
H          -0.97529891280679    0.13225832339393    1.73705201031055
H          -1.41378479827734   -1.75363470147619    0.78360210159152
H           0.21972739041448   -0.84187357435519    1.73274635665709
N          -2.27918388544161    0.28393772365693   -1.34280126151356
H          -3.23847563457586    0.56253665300010   -1.50531522483776
H          -1.80080818171772    0.26603014325907   -2.23593885338945
H          -1.45026132807890    1.11123632582619   -0.27221367902550
H          -2.28571659201950   -0.66907445418533   -0.98444537889731
