    26
        -50.45498063  Gyration_radius:  2.47712407748 Dipole_moment: 8.716
 S          -1.01459158872067    1.98445735163892    1.06301967148925
O           0.36902110787697    2.32746440024179    0.65772779016392
O          -1.89325856356425    3.09867648084990    1.12768109735979
O          -1.49590558836356    0.88778562828602    0.19769915137922
O          -0.87572992892231    1.35637984964168    2.49666585085636
H          -0.26597456497922    0.61050404113851    2.36118267502502
H          -1.28831347933432    0.60558379595815   -1.32284732032705
O          -1.03058598937466    0.40430643013322   -2.27014900966758
H          -1.74380445750311    0.74220954513185   -2.81269585866458
O           0.55439135727693   -0.92401446189460    2.09263166380008
H           0.64346413697895   -1.35823376378900    2.94245039665276
O          -0.29476181304214   -2.17064568914251   -1.43050249538222
H           0.59285116037144   -1.97725936169243   -1.10209936876448
H          -0.59962846005575   -1.36930098458616   -1.88312681477723
O           2.07169165037140   -1.25173674733386   -0.07549954579353
H           1.55846034009346   -1.11196677864952    0.75584770835409
H           2.88628049782088   -1.68984148466064    0.17365670496280
O          -1.57213236119470   -1.66192909810634    0.90413450887379
H          -0.30145955815782   -1.29494092987517    1.67324526008259
H          -1.79093501191981   -0.73286801079113    0.68148047665056
H          -1.25445400833788   -2.05041425397234    0.06199268107998
N           1.37653767594028    1.10901805150255   -1.28975608594947
H           2.06936461817122    1.67843690923104   -1.76085093582409
H           0.93361592692633    1.66930623865785   -0.41224492159302
H           0.57776388678034    0.88278006071690   -1.90956128563904
H           1.78809302486475    0.23624278136507   -0.92008198434915
