    26
        -50.45063121  Gyration_radius:  2.64489020141 Dipole_moment: 12.383
 S           0.52253204454971    0.11263077317351    2.52509849986652
O          -0.16813050755894    1.32851523617179    2.90211050576407
O           1.11741068335248   -0.67034491308687    3.55392591559942
O          -0.59575281714949   -0.83643349705062    1.86089166284361
O           1.46413758379662    0.37884810193817    1.40591519874691
H           1.31914054044948    1.28548986484074    0.18313640885531
H          -1.22450714160938   -0.28032504716405    1.36995005422441
O           1.17686379106505    1.74848155189967   -0.70182069618076
H           2.04108844815689    2.06170057046732   -0.97052868883697
O          -2.24320654137009    0.46199994306062    0.14345152367932
H          -3.15189457913094    0.48964104247256    0.44347041997915
O           1.38737245733174   -1.97430139617109    0.39109984728064
H           0.90535201803649   -2.46598315985289    1.06159728874443
H           1.61490041576545   -1.12315802380083    0.84927488082120
O           0.00461962346360   -1.93669659767416   -3.71495004604533
H           0.70234466857648   -2.59265839161004   -3.64773437225809
H          -0.51141579190076   -2.13984987460464   -4.49718304318731
O          -1.03290387492094    2.60759620457204    0.81779276580113
H          -0.70243850312349    2.24655623703342    1.68357170945818
H          -0.25787403893059    2.65131914641003    0.24189366036467
H          -1.84877586406658    1.37359827246663    0.34744486223539
N          -0.11631809155974   -0.55240326595354   -1.26931258852973
H           0.42300823509724   -1.21648168275650   -0.63030227280330
H          -0.18421849886606   -0.94839936062280   -2.21228853482562
H          -1.04669545783848   -0.36321685069353   -0.86673700649489
H           0.40536120838758    0.35387510654799   -1.26976795505053
