    26
        -50.44948295  Gyration_radius:  2.38913366009 Dipole_moment: 9.722
 S          -1.39472823581326    1.69550210010045   -0.40185741825040
O          -1.05369953195702    2.54004914605010    0.72551086642855
O          -2.31476649663821    2.20688420754292   -1.35739905297064
O          -0.13985802149367    1.19656631159983   -1.04098228954365
O          -2.03813644320222    0.36739547895592    0.20428317925667
H          -1.39189706511128    0.07107357041024    0.87205553384232
H           1.27435910694924    1.18747636423529   -0.45418011397412
O           2.20778376994917    0.98139971927948   -0.12479209476827
H           2.80138473611333    1.43319556982305   -0.72550170741887
O          -0.24793186295887   -0.67207032678185    1.92271860034673
H          -0.68059936566079   -0.98304530762426    2.71806753445248
O          -0.27164009229695   -0.96330366611944   -2.37740345935029
H          -0.13902132847886   -0.77376239192198   -3.30654094599778
H          -0.35911980166237   -0.07221033975715   -1.92448061920115
O          -1.48875355722488   -2.42265344951358   -0.32195305664147
H          -2.08020539401545   -1.73948046701732    0.00968517450309
H          -1.35593670359958   -2.19264909423799   -1.24883635275911
O           0.81913229366908    1.61552123256551    2.24095187771015
H           1.57472650701286    1.61102447918756    1.63959870956442
H           0.09826025316053    2.09260026564622    1.74406836390766
H           0.21702009386044    0.20189617254499    2.15284186006190
N           1.21424587273794   -1.49792445721614   -0.19006981299172
H           0.67914137721543   -1.46965892157166   -1.09211460796942
H           1.80438635789529   -0.62873149768954   -0.14087622357260
H           0.51336836083142   -1.43144072372009    0.58291360497386
H           1.75248518072004   -2.35365398477094   -0.10570752964015
