    26
        -50.46310175  Gyration_radius:  2.37039169894 Dipole_moment: 7.830
 S          -0.76871945354883    1.68488361058459   -0.67267781504413
O          -1.99549140057994    1.73608139351534   -1.43383466201386
O          -0.06322120855742    2.90986386329594   -0.46450998889562
O          -1.18148092765998    1.18278020586796    0.80399491750524
O           0.11454759842102    0.60346703897179   -1.15681577363779
H           1.24810045881205   -0.63964862139552   -1.27445833764675
H          -1.58098200123500    0.30578101464967    0.65686375333952
O          -1.97905017946542   -1.35744344362708    0.36234628079341
H          -2.87265899163490   -1.57235199007417    0.63431700510630
O           1.94473878754894   -1.27873236105580   -1.01343192599375
H           2.71435932825583   -0.72805069865043   -0.83886050478656
O           2.25284931048583    1.52731040346462    0.06607960113896
H           1.45310658967488    1.27377886128278   -0.44794280641012
H           2.20896305081889    2.48767665986793    0.06907901988514
O           1.05336956315945    0.65508763062565    2.25620448661319
H           1.67981243255968    1.01664171980584    1.58135573742245
H           0.20591449766564    1.07371043636023    2.02772819670500
O          -2.09764885687957   -0.73986548975912   -2.12177459232421
H          -1.22951810074954   -0.83670423793325   -2.52226121725787
H          -2.02235664296918   -1.21111267321137   -0.63904731619101
H          -2.17522247873074    0.23935391924676   -1.95404197249633
N           0.61603670585034   -1.69572845751507    1.23008809799319
H           1.20450263396780   -1.66646909493245    0.34415654819057
H           0.83688939609451   -2.50426985431349    1.80074180655923
H           0.81371468399845   -0.76720077009721    1.75560872341099
H          -0.38055478529785   -1.69883905497678    0.95109274803471
