    26
        -50.45960430  Gyration_radius:  2.54564774958 Dipole_moment: 5.076
 S           0.42352809654058   -0.19588943071173   -2.19149938618708
O          -0.90699931108754   -0.77237844722718   -2.29810556639864
O           0.43333388817459    1.02229185627279   -1.40558655358665
O           1.40359279110059   -1.17651259385185   -1.75818749238273
O           0.86366644176059    0.23926269231696   -3.65692926275475
H           1.11066219674135   -0.58224768438828   -4.07047416505606
H           0.66439683290221   -1.65984620505248   -0.48011986137265
O          -0.54078385813711    0.96098762918497    2.91454730854866
H          -0.62983990781156    0.80504563151704    3.85529876288933
O           0.13878920251128   -1.98664285307912    0.30498399145065
H          -0.07831065528456   -2.89654945921477    0.09313822560461
O          -2.21474991645483    1.15870694941257   -1.18799995031151
H          -1.40520068842693    1.69057805307360   -1.18844925088760
H          -1.94830080714967    0.40219630118626   -1.76331916986028
O           2.48603159850691    1.36948202357628    0.23465642249045
H           1.79455960185952    1.19367268645092   -0.43844787638317
H           2.42162312468243    2.30457728901915    0.43696427136052
O           1.57756240478756   -0.31351692635103    2.11026848783455
H           1.24479470870369   -1.03879050652388    1.56553443364292
H           2.04524490911624    0.27984704261286    1.48157524466148
H           0.33179726759161    0.54677075369838    2.64805640653022
N          -1.86011353081986   -0.27725250174223    0.97116205022026
H          -2.07055636982184    0.37198862208162    0.13811959780018
H          -2.70410726973405   -0.75928061521888    1.26111668612067
H          -1.13423181966952   -0.96375219297117    0.65509629571292
H          -1.44638892057794    0.27725188592901    1.76860038031401
