    26
        -50.44395725  Gyration_radius:  2.5316173446 Dipole_moment: 3.531
 S          -1.58812080961007    1.61937172286310   -0.41457179865616
O          -1.11048423454784    2.01078550615815    0.89178275693558
O          -2.35255073243587    2.56573628713082   -1.13461618595982
O          -0.34519243276862    1.17916144547198   -1.24263011509380
O          -2.40235679986042    0.30891154672990   -0.29066873464068
H          -1.80530718858427   -0.47985567776937   -0.12712307595954
H           0.41379563306738    1.07301180558558   -0.58139006154596
O          -0.88537910824608   -1.77336782042513   -0.09919711241255
H          -1.44310167150776   -2.54348675797842   -0.22048407361353
O           1.42680144559625    1.04892830963845    0.59746184783634
H           1.01305860159138    1.78439529067503    1.06377946212924
O          -1.46008252000167    0.42411993455583    2.99926488557392
H          -1.59286923525561    0.96665970035556    3.77765953722615
H          -1.42939417899507    1.03790553533332    2.23750529458220
O           3.01012053165652   -0.17110718439187   -1.38164630798041
H           2.62841924147175    0.24586912379343   -0.59667229682477
H           3.48576073407168    0.51734399797716   -1.84884714219980
O           0.64683484615330   -0.95875499655986    2.03292630074937
H          -0.06359749112162   -0.54953761378481    2.56499751290110
H           0.18001278221948   -1.47339115929581    1.35678670724723
H           1.22256869791249    0.24051846437537    1.16580941761401
N           0.53919612626464   -1.44182135731481   -2.24320100390975
H           0.12668986967893   -0.60594874449356   -2.64193749441476
H          -0.30412766841333   -1.68533147664915   -0.94058688658574
H           0.60255625102795   -2.14810350306928   -2.96518578361745
H           1.48674931064178   -1.19201238890788   -1.95921563937939
