    26
        -50.45931699  Gyration_radius:  2.40431301344 Dipole_moment: 5.315
 S          -0.70422745925418   -1.46020440589678    0.02609904047690
O          -0.94586684808656   -0.73814786313508    1.27551219402002
O          -0.38164044997499   -2.83675158587709    0.18075081658055
O          -2.02483023741553   -1.33235076366867   -0.81524373231628
O           0.31482179817569   -0.71828411080014   -0.76597122152249
H          -0.05995722067197    0.27533899227446   -2.01296510807191
H          -2.26147656568745   -0.38482886164100   -0.77388441587536
O          -0.41704491056479    0.92266041448450   -2.66675561180936
H          -0.55390440430617    0.42838488429263   -3.47671548854733
O           1.45133397655169   -1.53701053390434    2.04307924598917
H           0.51891492915134   -1.29323743223352    1.88283888628663
O          -2.42849555197690    1.33895981028721   -1.01773662556402
H          -3.24589250598392    1.55635733501539   -1.46947029725663
H          -1.71056624707506    1.34096893269112   -1.69857244855730
O           3.11122592635529   -0.85901584844002   -0.15276935199182
H           2.82355077757421   -1.23919437449041    0.68876530670220
H           2.41562848597832   -1.09464700384031   -0.77478201825443
O          -1.08970134467662    1.89023528911199    1.38487148121644
H          -1.61554869861583    2.03857782846359    0.58670812740983
H          -1.21060621544253    0.93250804039022    1.56352987456639
H           1.45264723937150   -2.49563013162391    1.99280031032072
N           1.33449700253958    1.08600443456693    0.80898554490028
H           0.99691963992356    0.35381761177399    0.10136763411073
H           1.69164365678781    0.54812035064757    1.60179405745327
H           2.07717599856374    1.64658869178714    0.40111018985230
H           0.46139924875152    1.63078027974485    1.08665361987555
