    26
        -50.45862781  Gyration_radius:  2.48032269312 Dipole_moment: 3.030
 S          -0.92821865072603   -1.89876360878318    0.84306112237873
O          -1.72540596404193   -1.64366343317108   -0.34844981026358
O           0.46270501881365   -1.52380381129857    0.67551541268901
O          -1.52998479414747   -1.31974555009531    2.03425317584624
O          -0.93200869876242   -3.46513964656306    1.06248834884731
H          -1.82400438367988   -3.64870435844419    1.34077213420473
H          -1.30892575007459    0.19875996125775    2.19026803570053
O           0.28506779198691    1.00077915638927   -2.34075443318549
H          -0.03055146249551    1.17245873301071   -3.22922293801529
O           1.38656401530888    0.68440733944158    1.77564511628521
H           1.22748530560735   -0.22336315931305    1.43204600519017
O          -1.01317881558583    1.15399015337421    2.00376690570640
H          -1.30304108269322    1.27797044732065    1.02483655911061
H           0.10864903355775    1.04772336669600    1.97614492646822
O          -1.66294833732507    1.01771466925645   -0.44123347659322
H          -0.95712249243566    1.15664394021743   -1.10484155920729
H          -1.84980867715098    0.05664028537852   -0.45969383883760
O           0.36101852862488   -1.60165780339360   -1.99165103311846
H           0.38662561941005    0.01177611769034   -2.27145068771308
H           0.84659395390666   -1.69373672515878   -1.15769698233259
H          -0.55903405582509   -1.73792896271386   -1.70262733769358
N           2.14745261932295    2.06133496695078   -0.34312873916324
H           2.03371813451665    3.06205238179401   -0.24451283438847
H           3.10528054729332    1.88070247123783   -0.61482060188907
H           1.72865113568118    1.22278511550683    0.99327332718189
H           1.54442148093014    1.75076795341643   -1.10198682727648
