    26
        -50.46310674  Gyration_radius:  2.54438036515 Dipole_moment: 7.032
 S          -1.59602598997096    1.17020754422947   -0.05671409401312
O          -0.70392231574311    1.12299055174997    1.10816848069843
O          -1.76777940880487    2.46131356030472   -0.63087451804893
O          -1.15518000661346    0.15503664622873   -1.03303045283088
O          -3.00342855018866    0.67025727110498    0.46100535492208
H          -2.81649612703873   -0.10810570051890    0.99745931584454
H          -0.24240519782134    1.25814172252235   -2.03865402842664
O           2.97970661090047   -0.03842017839849   -0.14461311774086
H           3.61885573148152    0.17028172167714   -0.82784498912052
O           0.34403642720087    1.96868086177220   -2.35195398741567
H          -0.21209754120120    2.75305336731869   -2.31676602116669
O          -0.13669682994202   -3.07183028946976    1.16819524153293
H          -0.63869520743674   -2.35534598311746    1.61637441469131
H          -0.77626471605917   -3.75166834873288    0.95033376143462
O          -1.55342059863459   -1.02324639422407    2.15903296057628
H          -1.60931857896839   -0.90851467630064    3.11008195273976
H          -1.10071622459004   -0.20034576874051    1.81491533420024
O           1.57466929398605    2.12421879645099    0.06816742071926
H           0.78402760199184    1.89194786239032    0.58568002202072
H           2.50886194038299    0.82607739821659    0.05225423033912
H           1.25846687987797    2.21386620487703   -0.85384014776529
N           0.85879732807845   -1.47902784144121   -0.77492314788350
H           0.99073568014216   -1.94603430159338   -1.66612187121362
H           0.60510694499340   -2.16817452734348   -0.03156372734224
H           1.73993837800961   -0.94555317644936   -0.50542317890915
H           0.04924449595291   -0.78980633251863   -0.85934519784270
