    26
        -50.46400023  Gyration_radius:  2.54752185076 Dipole_moment: 4.766
 S          -0.97317554579783   -1.79065420144515   -0.59912379999645
O          -0.34650710202222   -1.52359038839656   -1.88762221453983
O          -0.03899313529156   -1.89827539213508    0.49255346062856
O          -2.04024735003011   -0.82364089853387   -0.33567480385156
O          -1.67865707752723   -3.20027685653372   -0.73779242863769
H          -2.12001228979579   -3.13820089119415   -1.57906367880723
H          -1.75608559667774    0.76911125535735   -0.50275804291298
O          -1.50709046915243    1.72375758761878   -0.58657792465194
H          -2.32468470354266    2.19772032539285   -0.74460631116267
O           1.67420802300184    0.09146815339696    1.01549866553651
H           1.22215754366345   -0.77316821846642    0.97373177412928
O          -1.77741461898721   -0.75871243347927    2.33658247416968
H          -2.06749831643264   -0.77561570548594    1.40714436443268
H          -1.09411499661624   -1.43512452414809    2.37618314998640
O           3.58006361736138    1.12019243300260   -0.88917152070491
H           3.23621754325027    0.75620995834504   -0.06162128118079
H           4.52837634004775    1.19666083988230   -0.77968598792289
O          -0.32209580530276    1.49254430591700    1.98983774748582
H           1.05542613810449    0.67287367481491    1.53242284144582
H          -0.74554964661091    1.80249929617893    1.17668438250487
H          -0.89045127364533    0.75919987586861    2.30916916618318
N           0.87985885549912    0.72586613351553   -1.41172607293610
H           1.66475467537982    1.05353050950191   -1.97188192491537
H           1.25393910144897    0.52611719815606   -0.42649419722677
H           0.11903595523046    1.41465493785355   -1.33620299843527
H           0.46854014439768   -0.18514699488217   -1.75980483865292
