    26
        -50.45433511  Gyration_radius:  2.86577038268 Dipole_moment: 5.540
 S          -0.16271012976660    0.58609544710117    2.86750190972775
O          -1.29215416713892    0.89046445649247    1.99357660238904
O          -0.11904704297046    1.32362889801232    4.08761811594536
O          -0.38407211243670   -0.96422948905862    3.30106343157800
O           1.08223086341374    0.54108378664856    2.10063981806510
H           1.19683777284505   -0.98704145907367    1.52985107030899
H          -0.77130988543450   -0.83552907839176    4.15980250513384
O           1.11307510619929   -1.83769005059387    1.03419185668326
H           0.76565961801616   -2.45809458508102    1.67781992655961
O           0.78634127609538    1.50780514125196   -1.61136901919297
H           0.61289716849826    2.41429609558022   -1.35162594699608
O          -0.64196410834045    0.33730149486821   -3.68891572711240
H          -0.03241207341711   -0.13136860670688   -4.26104536807953
H          -0.09896895254041    0.82565999650429   -3.04776089177238
O          -2.48972643632578   -0.99960922654796   -2.20704504466956
H          -1.89635690918777   -0.56809106612303   -2.85507600226754
H          -3.35820932874056   -0.61627038471815   -2.33538734361188
O           2.69388853414252    0.70650797321026   -0.01878011284766
H           2.21264686047346    0.82359192009136    0.82393781381318
H           2.87938611400849   -0.23519514143690   -0.06580877437795
H           1.60370324322831    1.23498041703139   -1.11089438733293
N          -0.75378443693144   -0.32469242633111   -0.21472414629207
H          -0.21987574468569    0.36651881470995   -0.77314525692131
H          -0.10817380401604   -1.08343877549060    0.08635438126356
H          -1.08511180644968    0.17103420818291    0.67358190941257
H          -1.53278961853050   -0.68771834012916   -0.79436130940912
