    26
        -50.45433571  Gyration_radius:  2.86636484571 Dipole_moment: 5.557
 S          -0.98340182893159   -0.35559402218996   -2.74102243923763
O          -1.54718255171978    0.68745239228006   -1.88872371881327
O          -1.81268718434406   -0.77346238872739   -3.82365180128444
O           0.31839547020098    0.33365943444262   -3.42734642980004
O          -0.40246839427634   -1.42450210919861   -1.92867967917296
H           1.12954161337354   -0.95490690301994   -1.60328034312210
H          -0.05216833912703    0.56766572526393   -4.27106661263245
O          -0.91083150778008   -1.06624158046625    1.88217937481309
H          -1.84834082638884   -1.23402706476336    1.77186164500612
O           1.95360348615125   -0.53438221796004   -1.25622762666626
H           2.32052520681205   -0.06716154826655   -2.00919965924765
O           0.35804120364008    2.90401368872549    1.87012123653178
H           0.25699136895962    2.27426402393198    2.61265383122965
H          -0.28367557079396    3.60058762802709    2.01416848088812
O          -0.02607843744900    0.88551535633714    3.65252659100768
H          -0.38164724839286    0.14500963577867    3.13321973692778
H           0.70236742908259    0.53304593626314    4.16602790252027
O           0.27034872789511   -2.75688913856177    0.28135672007554
H           1.21685833734538   -2.62037515806010    0.18765475666642
H          -0.44553965079745   -1.79459016654287    1.38610640789041
H          -0.11261832206765   -2.43338434783078   -0.55791671818688
N           0.06453347705428    0.83525948143886    0.11708377253472
H          -0.63048537701313    0.88087294610984   -0.69499658344674
H           0.20834922984119    1.74971866561529    0.58354125206629
H          -0.31531248127979    0.16578330137821    0.81134436699674
H           0.95288215002812    0.45266843001055   -0.26773446354178
