    26
        -50.46124913  Gyration_radius:  2.51003411512 Dipole_moment: 3.153
 S           0.02246283635806   -2.06216826791382   -0.78524786168736
O          -0.55390298268086   -1.26716270397068    0.31058984450086
O          -0.51118388994397   -3.37766580225085   -0.91195360198359
O          -0.50848901223127   -1.27746087667192   -2.11100040967524
O           1.46113676934866   -1.93099093368761   -0.81693105158893
H           2.16973323121851   -0.51270139559338   -0.84191142891759
H          -0.81015513286330   -2.05552319768336   -2.56494168814125
O          -2.01127091951201   -0.43493314002549    2.49823773209414
H          -1.56408701816655   -0.87050918752751    1.75437341965650
O           2.55669685796309    0.40437074370671   -0.83913545731259
H           3.48391826094085    0.30056806633413   -1.05709161862537
O           0.52265269767113    1.37962872229395   -2.30835138455100
H           0.25816601516239    0.51659384851322   -2.64977066666308
H           1.35946056477480    1.21517599935182   -1.82761177495087
O          -0.70160093395962    1.94046339000194    2.08609212954415
H          -1.30353239730179    1.28385095642451    2.48131499727323
H           0.17266555291197    1.48760528552724    2.09112110901529
O           1.31185805848865    0.25257319377752    1.65556622068856
H          -1.83082958160246   -0.97607740271090    3.26824680364706
H           0.75141605696607   -0.43709934955472    1.26281303612540
H           1.93127711930686    0.49763939332923    0.95375239038061
N          -1.25913648979359    1.20439308600210   -0.34469336635053
H          -1.04916574352849    1.68661998828871    0.59857803168019
H          -1.08488881247799    0.18295396678225   -0.17009572489209
H          -2.22170607641502    1.35807620517693   -0.62354737959074
H          -0.59149505063667    1.49177941203129   -1.10840227967373
