    26
        -50.46124923  Gyration_radius:  2.5100185848 Dipole_moment: 3.155
 S           1.45406240303032   -0.02499522091897    1.65926688983116
O           0.31460876941442   -0.79258384632446    1.13235876224997
O           2.17489231319405   -0.67088139054259    2.70549139913792
O           2.48743429349761   -0.01283282997653    0.39949754167807
O           1.09250653581513    1.35840631456084    1.86736071017215
H           0.43136252213221    2.23056818453174    0.71984594571380
H           3.25129045988881   -0.26715671152183    0.90375769072893
O          -1.61770848325802   -2.71380197552055    0.70957001098321
H          -0.89294617027813   -2.12779246970383    0.98214170795408
O           0.00327824533023    2.72137762922334   -0.03287274370243
H           0.01805865600740    3.64728493133314    0.21309190509793
O          -2.41925614231654   -1.02930348849726   -1.30205935817402
H          -2.46558489550305   -0.26848883911691   -0.67885039818129
H          -2.39319445553063   -1.80666701138435   -0.71490654969932
O           1.45089225532536    1.38395984330691   -1.86663901839666
H           2.13607715418158    1.11958242541435   -1.24055822849157
H           0.88000314396616    2.00420272092892   -1.36888310141861
O          -1.89223156691396    0.76817313387098    0.59010847960344
H          -1.49676586378984    1.59939820873944    0.29188037244673
H          -2.15943796391469   -2.84397096429953    1.48933030383684
H          -1.15408499836185    0.26432271534278    0.97122727854175
N           0.16998622380095   -0.91731260614815   -1.51302192082380
H           0.59331775370757   -1.71838620994336   -1.96802412228300
H          -0.90506654912668   -0.93988810741396   -1.61364786352603
H           0.34442768926111   -0.94731657135352   -0.47721045643861
H           0.59407867043580   -0.01589787459342   -1.85825523683785
