    26
        -50.46824523  Gyration_radius:  2.5330484488 Dipole_moment: 2.076
 S           1.02135965115970    1.66156029033456    0.02957276832972
O           2.03160211013852    0.73500098122715   -0.46781140176791
O          -0.28997267136852    1.40463715693142   -0.53390340221313
O           1.01467591565083    1.72312755783523    1.47771746310939
O           1.44012035649400    3.09844819907679   -0.48935340379478
H           2.26955125265218    3.26087309598570   -0.05050830388911
H          -0.29502205903664    1.27324149449114    2.46819396940365
O          -1.09143033086791    0.92558465597025    2.92289544869445
H          -1.61758117530464    1.69052690662134    3.15788673456987
O           1.14200798819927   -1.14402972018311   -2.14618848844296
H           1.47354331969004   -0.44648866925425   -1.54446026007170
O          -1.40893212930991   -0.27834677394109   -2.47001567824719
H          -0.51429192663993   -0.66328923510315   -2.53583255463086
H          -1.27352913640947    0.52709366319308   -1.95321796011385
O          -2.35379083899338   -2.19028415090805   -0.90473228385288
H          -1.97945414177282   -2.99255265893546   -1.27224662955232
H          -2.16373176768068   -1.47661744985144   -1.56793715069306
O           1.66415307541969   -1.05869391336205    1.47014023472765
H           1.70437704266566   -0.49191061092909    2.24577038903681
H           1.83145538431947   -1.27991506557275   -2.79737197359219
H           1.97052898467878   -0.49480471423358    0.73336999080180
N          -0.93189497049492   -0.78367432981139    0.85198227923817
H          -1.34935809017753   -0.43138337246385    1.72677510982650
H          -1.53554906476934   -1.46452412241551    0.32641476824565
H          -0.77776433172623    0.05564792799153    0.24587271280764
H           0.01892753347362   -1.15922712271489    1.07698764207669
