    26
        -50.47114518  Gyration_radius:  2.41074124128 Dipole_moment: 3.625
 S          -0.68321536141408   -0.76841921696945   -1.72174616854520
O          -0.67187799938082    0.67253437204369   -1.91520581825291
O           0.64059478807993   -1.33147260947913   -1.51464514768328
O          -1.62303368497619   -1.17692361208678   -0.69215797527570
O          -1.20090677852585   -1.38893793057737   -3.08372869548665
H          -2.01188723624032   -0.91318160220551   -3.22779551547985
H          -0.71077269924893   -2.67596987718890    0.57992281203400
O           0.24434892694812   -2.62860228956182    0.70734334684898
H           0.55676974843637   -2.27132183572151   -0.15468647029619
O           1.80252890885113    1.51298837946976    0.92725831885618
H           2.59500000231498    1.98682582540059    1.18215495012569
O          -1.99341402886934    0.32542132731702    1.46982061610719
H          -1.77138556973835    1.21170496049059    1.09678476097831
H          -2.04655362057004   -0.25722735161804    0.68236513172999
O          -0.84930242748372    2.33747983868415    0.19662618104953
H           0.06596641329242    2.29877717997742    0.50503591487886
H          -0.86301574623524    1.84534158166080   -0.64638980781995
O           1.96145180968928    0.93232554181608   -1.60102395026167
H           1.81783968794113   -0.03189007321222   -1.61974291550313
H           1.10822233351252    1.25840741587264   -1.93000842322260
H           1.91779046851107    1.28633414470738   -0.04322884897887
N           0.36633560729078   -0.44463366153900    2.18611617249685
H          -0.65459083386977   -0.09891792257279    2.01110552387185
H           0.43829847350185   -1.36765952087469    1.66120988233427
H           1.01077515685658    0.25533885728143    1.77010127129288
H           0.55403368134541   -0.56832192112532    3.17451484420469
