    26
        -50.44824994  Gyration_radius:  2.581687389 Dipole_moment: 9.087
 S           1.73884644168058    1.92537891036381   -0.89340880434976
O           0.57931650886605    2.29104248498125   -1.71972182498158
O           2.99509077437569    2.42125342274501   -1.32619972465605
O           1.44115342460766    2.57063695333684    0.53930524296101
O           1.70537305857684    0.46908488652975   -0.64409560986288
H           1.52665656246474    0.02254506092590    0.82287998922956
H           0.53833250422529    2.31242390822366    0.76800510532438
O           0.29264575570357   -1.65302218458121   -1.44315276385903
H           1.04364527273417   -1.03385846234989   -1.39234478813912
O           1.29853789294560   -0.21091452882511    1.77612604794251
H           2.06224752138252    0.05425031082062    2.29068426586405
O          -2.44536211376665   -1.99486635573926   -0.43629850306521
H          -3.03034606919958   -2.75311294882677   -0.40632768351582
H          -1.73128535172716   -2.22163809896879   -1.04470570938016
O          -0.85204813540202    1.30855276946397    1.53803806453125
H          -0.11399578026192    0.69465726725023    1.76867269472161
H          -1.18084268420784    1.67607767989403    2.35929500174483
O          -0.01971460506252   -2.53203192063291    1.08155168015545
H           0.49623830591779   -1.81841692405280    1.49070551390715
H          -0.94225987157145   -2.25172332085012    1.09271898250211
H           0.32809959690401   -2.14309098283994   -0.59218219588510
N          -1.17625244462521    0.56767358737876   -1.12734187126153
H          -2.04422105186756    0.60778961616490   -1.65019981796298
H          -0.45939667634768    1.33911671802122   -1.45425896836795
H          -1.35321238996186    0.71545512096194   -0.12778205834994
H          -0.69724645658841   -0.36326295921738   -1.26996228517656
