    26
        -50.45498073  Gyration_radius:  2.47728891437 Dipole_moment: 8.710
 S          -1.99005530849976   -0.69032617844441   -1.28953938668684
O          -2.30278792460283   -0.81592649705861    0.15376929714380
O          -3.12692152682183   -0.47105388833042   -2.11238957945464
O          -0.92614264559568    0.32235070672542   -1.44967953116241
O          -1.32774417897493   -2.05954448801946   -1.68393950544013
H          -0.56711270853209   -2.12754142170354   -1.08115138141745
H          -0.66938182466571    1.67715451934264   -0.71792060905370
O          -0.48059893608922    2.47548823056673   -0.14260285935505
H          -0.84898990650494    3.22688833136097   -0.60838736433424
O           0.98403931184536   -2.12329087999510   -0.24906731403838
H           1.43896176073368   -2.93524240907628   -0.47816963491998
O           2.13108981613313    1.50585567454679    0.19590328546053
H           1.31209127019007    2.01347347243335    0.08852659113913
H           1.96999739928878    0.87635974437445    0.91069641812190
O           1.30821379695813   -0.63183986367377    1.93739847201920
H           1.17175489374276   -1.22871963215545    1.16332770997073
H           1.77406469525388   -1.14259967208864    2.60055868394682
O           1.63511674335191   -0.23169493611767   -1.82292436838211
H           2.01460752223607    0.45248216068834   -1.23213286071195
H           1.32113629060167   -1.41478625544390   -0.90505096954921
H           0.69561819477188    0.02629721183059   -1.92948234200820
N          -1.09708851101104    0.67882453664360    1.76711418082363
H          -0.90659721216206    1.54958124833265    1.23918527942180
H          -0.20538307492099    0.21286847888131    2.00264439926112
H          -1.65646180245718    0.85413923658445    2.59329140901109
H          -1.65142614426940    0.00080257979623    1.05002196019464
