    26
        -50.46507338  Gyration_radius:  2.50418530649 Dipole_moment: 5.940
 S           1.94771643238789   -0.55043167055512    0.70478076337895
O           1.70374264144906    0.28503965572468   -0.47341288134517
O           1.68564932756099    0.10506711541942    1.95238558384465
O           1.26208327806471   -1.83061347957560    0.54997077345918
O           3.49652834983240   -0.89001077706219    0.68304867727825
H           3.59472900458451   -1.51531553221920   -0.02831765649788
H          -0.08267724076964   -1.13294380448131    1.38058551986613
O          -2.15432660729832    1.56366074931073   -1.69849237122200
H          -3.09555316897893    1.38903332657389   -1.73799869732868
O          -0.94750848399131   -0.81918931753715    1.70259094694526
H          -0.79157480875526   -0.57442742193910    2.61789975451072
O           0.99685712404959    2.50733522276265    1.00730532907735
H           1.28217930637291    1.78347189879604    1.59278598386962
H           1.33498151150351    2.23997152616276    0.14572201735290
O          -1.04857816980785   -2.53040549566108   -0.62214927615146
H          -1.61991653762936   -2.25416906834556    0.10328242977995
H          -0.15627794516480   -2.55418076256833   -0.22590061866640
O          -1.56739229671200    1.73754903163691    0.80916872763886
H          -1.43895753038023    0.82626988384340    1.12489720725786
H          -0.69605670376342    2.17775590680944    0.92514577794869
H          -1.95142388538392    1.74928696113563   -0.73225804096637
N          -0.35426505962079   -0.34491934994738   -1.97565506323489
H          -1.09022254298540    0.42043167318707   -1.93104459601156
H          -0.72831069101666   -1.23469609738986   -1.54459127278928
H          -0.06610091324519   -0.50112065513764   -2.93554314648146
H           0.48467557957036   -0.05244954885268   -1.39420589142432
