    26
        -50.44549875  Gyration_radius:  2.58527216213 Dipole_moment: 5.810
 S          -1.69593322181025    1.88216530133787    0.43028464938986
O          -0.25754522234661    2.04463798258004    0.42408548878304
O          -2.47230305950357    3.05432994406445    0.28344741925427
O          -2.03606628029354    0.82277629864079   -0.66021605735677
O          -2.12083749371141    1.14974964724732    1.72213494657471
H          -1.60754909580233    0.29566638336622    1.82793878095277
H          -1.29911345054201    0.91706099607920   -1.36577723882741
O           1.32871991795617   -1.01887058754635   -1.27960853896625
H           2.24692774518570   -0.96010248503686   -1.56572085820408
O          -0.90576191951396   -1.12597382540778    1.97591420956595
H          -1.40776166081623   -1.64014647829613    2.61053000562441
O           3.74691120879499    0.19079174913260   -0.48030922748573
H           3.14091559281936    0.24553078834637    0.27179935638880
H           4.41655609915210    0.86107548482806   -0.34205623987251
O          -0.01243918561674    1.11319418358493   -2.13204782241099
H           0.34820080628554    1.77832061521407   -1.53158354669249
H           0.50232597814417    0.28513799685078   -1.95383708322270
O           1.42107717515094    0.13319469075425    1.16195818498576
H           0.89287970780322    0.93059121443645    0.94669684671896
H           0.84758024792738   -0.39982617404587    1.72716922706692
H           1.35437848169665   -0.69233802011200   -0.35123738322790
N          -1.31083590046040   -2.05149013057193   -0.42742618928414
H          -0.42488471049612   -1.98537945432461   -0.92064365601443
H          -1.72138779855877   -2.95262811618068   -0.63447739707124
H          -1.05707500953597   -1.55105482300583    1.06024629045569
H          -1.91697894172540   -1.32641319198890   -0.79726416715113
