    26
        -50.47064892  Gyration_radius:  2.4184727364 Dipole_moment: 5.118
 S          -1.71683313250137   -0.24791371853303    1.00638187243834
O          -0.72966191123327   -0.03148946672673    2.04358634566415
O          -2.04319959955518    0.93017199192435    0.23736137258125
O          -1.35342215199208   -1.37515879114860    0.14072870532881
O          -3.03694545463907   -0.68528375393554    1.76383248562229
H          -2.68163153315844   -1.05609287293830    2.56411464262313
H           0.12431913667890   -1.93905648370532   -0.15171448528007
O           1.93331938119684    1.64970152388593   -0.18893482558620
H           1.18927139117414    2.17229251635274    0.19418876986836
O           1.03078148149333   -2.22902556047912   -0.43306646648532
H           0.96632315859951   -3.16965921675608   -0.60372656141785
O          -0.17968152597829    2.59755571893894    1.11116205063587
H          -0.94166102233586    2.11592330966488    0.73526822900221
H          -0.03571759376790    2.17986748707116    1.96559210586756
O          -1.50889260567225   -0.08444832437551   -2.15766303575650
H          -1.56785208485940   -0.75006919028872   -1.44126849165669
H          -1.90681586391432    0.69093144761391   -1.73858974802695
O           1.88801521831173   -0.37856942103919    1.52374862887741
H           1.85586994663903   -1.17273929345494    0.97615206880820
H           2.12613428660585    0.97673506095954    0.50667563474631
H           0.97137332133317   -0.24651214739131    1.83494043436017
N           1.13234681077329    0.01131230791415   -2.00382772002775
H           1.64859122327341    0.08315008601251   -2.87335210805866
H           1.45872949846072    0.78040106046549   -1.29028701803548
H           0.08691261125213    0.08479544799931   -2.17181189775469
H           1.29032700432735   -0.90681969746388   -1.54949100813343
