    26
        -50.44969260  Gyration_radius:  2.45361066386 Dipole_moment: 6.640
 S           0.11424378970480    2.15889579883091    0.29831934270025
O          -0.03106808316676    1.67962460979449   -1.06489036530325
O          -0.62290478069414    3.32838088260360    0.61228382468334
O          -0.30863877471328    0.98531483280790    1.24219953358364
O           1.58709316083030    2.29960847225432    0.64027486532346
H           2.02218711822811    1.40258644485537    0.36984073750661
H          -1.23603125165201    0.68488141818209    1.00544256429876
O          -2.61887766254398    0.13802045757700    0.45684647121913
H          -3.15023277914283    0.88336252998555    0.16972696158960
O           0.65314923715288   -1.94095350028672    0.00158685212985
H           1.03570859274767   -2.81927002710424   -0.02478964223925
O           1.84954040881413    0.65878963567707   -2.69924208247946
H           1.36821141270907    0.04118929638737   -3.25381834867650
H           1.17656721138395    1.20859190070382   -2.25833533178211
O           2.49027910761654    0.08367823931793   -0.14815451398390
H           1.82504516701531   -0.61923228848934   -0.00577721598234
H           2.50117685234094    0.23737222881015   -1.11629030163593
O          -1.20811629512365   -0.66553876850073   -1.58025636953456
H          -0.55606599496228   -1.24896456186454   -1.15540601240054
H          -2.23961734154798   -0.27574435964740   -0.37090322822124
H          -0.79427163744186    0.21844747139069   -1.56964863912261
N          -0.83531915363165   -1.73683315747195    2.20184948278351
H          -0.93316272051878   -2.42850245593415    2.93449524039473
H           0.11485835567397   -1.88312302113868    0.84179240923509
H          -1.76156671620632   -1.49610889845394    1.86673824568288
H          -0.44218725287250   -0.89447317028848    2.60611552023221
