    26
        -50.46598345  Gyration_radius:  2.49052791372 Dipole_moment: 3.327
 S           1.24269609802593   -0.48929713220933   -2.00836326909214
O          -0.15538169006827   -0.34198141765863   -2.39271681075789
O           1.96203775779896   -1.52735605909888   -2.67159834785979
O           1.94994866925865    0.88803303320819   -2.44789256328124
O           1.34861304117320   -0.50601763105064   -0.54449910175175
H           0.51704236053243    0.99337325711293   -0.68102187206132
H           2.61125737882592    0.58116111632576   -3.05944886723463
O          -0.38998272543574   -0.02466503323607    2.76584812939452
H          -0.31659545298573   -0.01455374630288    3.72057093724939
O           0.08908974933883    1.86302431975304   -0.57038486424467
H           0.03076313584459    2.22170117521062   -1.45739624538435
O          -0.13326671532538   -2.13698043935648    1.00329327625912
H           0.57302866758773   -1.72847305238498    0.46717317882638
H          -0.23765007100146   -1.54459353924364    1.77002245406566
O          -2.07173365615203    1.08542157081281    0.87069328043333
H          -1.62848622878680    0.75253020601451    1.67033212771183
H          -1.37341656579207    1.55760707152919    0.37474863826968
O           1.73342666821915    1.06208831788328    1.64062147600209
H           0.43657680268236    0.40232738645888    2.41449424620483
H           1.84760355768496    0.41094662179206    0.92654869471293
H           1.40671337433624    1.85089602946501    1.19363077441837
N          -1.92171961887089   -1.08611221843604   -0.60798771498832
H          -2.16582294694759   -0.20881437137792   -0.05570995459553
H          -1.33077418273872   -1.69072345996423    0.03687539212533
H          -2.74199633695180   -1.56937529888612   -0.95426314876929
H          -1.28197108030038   -0.80016668636458   -1.40356982564253
