    26
        -50.46919474  Gyration_radius:  2.46721596532 Dipole_moment: 3.378
 S           2.27286469878096    0.70251018637277   -0.31132350064162
O           1.23963374962691    0.68397306283554   -1.33914769744885
O           3.61291743986368    0.65358871169762   -0.79504106467244
O           2.11943951058758    2.11081523746821    0.44380397927837
O           1.95187270969245   -0.28246033881770    0.73227020603369
H           0.77109056214940    0.46957465591883    1.57453745182946
H           2.84744033517000    2.58419307015815    0.05805502921150
O          -0.42850271968108   -1.24532991170895   -2.18674485185585
H           0.22277770084860   -0.52053186814946   -2.10980447070343
O          -0.00008811894679    0.89036789190847    2.02435674897363
H           0.37214326275114    1.49635031871763    2.66632873816843
O          -2.53351360378715    0.00437279305804   -0.91649326997332
H          -3.36015234523345    0.34237304397949   -1.26109819898931
H          -1.95268680283898    0.80267888111812   -0.73828535305861
O          -1.79668382995816   -1.14632790228007    1.45854175525475
H          -1.31491761082739   -0.40191698286873    1.85454607485584
H          -2.24570558843643   -0.78031439788884    0.67316396713559
O          -0.87925495254495    1.92738891661369   -0.36650197959991
H          -0.68035341426863    1.78486742423398    0.57431458423707
H          -0.07903747879772    1.60219277018443   -0.82934852233296
H          -1.28189918907600   -0.84912447842558   -1.93131278746119
N           0.23620680162022   -2.20176506547910    0.15173156599263
H          -0.59971073325753   -1.94068551862457    0.75615442989692
H           0.52269746673517   -3.16428014768923    0.28505302977798
H          -0.02909323269107   -1.98890869832514   -0.86377555402327
H           1.01251538253896   -1.53360165396281    0.39601970013193
