    26
        -50.45592082  Gyration_radius:  2.62498787631 Dipole_moment: 4.135
 S           2.24262213158663   -1.05488517154728   -0.98728245486666
O           2.77730060533139    0.31048390976898   -1.07849570587770
O           1.50990950912819   -1.26106734478161    0.23713221692728
O           1.48673714823961   -1.41069363881979   -2.17584470321574
O           3.50645197370336   -2.01656351425809   -0.94765143520926
H           3.87685807721540   -1.92294110735099   -1.82078015691690
H          -0.06986627287677   -0.99012274222402   -1.82570751761223
O          -0.50980058881431    1.90222981637709    1.61638579095825
H          -0.37332134668115    2.46312167496875    2.38018742167230
O          -0.86020462869538   -0.53805259042619   -1.44326841292325
H          -1.09538955429169   -1.05681910094633   -0.65560207983143
O          -2.18042500178620   -1.48651404847445    0.89260088931126
H          -2.58760853504896   -0.59878012084314    0.77344999409512
H          -2.89141363799175   -2.12753363050166    0.88789231416432
O          -2.78734404870998    1.04545082043626    0.27133643870813
H          -2.45908406020172    0.90502642808590   -0.62212259356334
H          -2.07299255263572    1.47862820806533    0.77014255640112
O           0.00485986332896   -0.52089300174599    2.28109456108702
H          -0.30103357095849    0.95702638669214    1.92589081337958
H          -0.77834481645910   -1.02340890595171    2.00598716101592
H           0.69572874222244   -0.80925302789282    1.65202936370398
N           0.56994063127058    1.58505572035839   -0.82713150978078
H           0.48789362197666    2.36644404313475   -1.46889922180411
H           0.32824855188759    1.86583283711323    0.14520972603842
H          -0.07949822746457    0.78347548213422   -1.10330810227013
H           1.55977597670987    1.15475262864047   -0.88324534359021
