    26
        -50.45598010  Gyration_radius:  2.65702442671 Dipole_moment: 5.371
 S          -1.03771588884059   -2.45542807857794   -0.69526912292973
O          -1.09517706562921   -2.34788085208804    0.76749965565997
O          -2.22125980295737   -1.97277689809674   -1.34244388773799
O           0.18574680073393   -1.81423735236225   -1.18976525183752
O          -0.88719922391646   -3.99929148002973   -1.01697777451569
H          -0.08121763167230   -4.25543738518533   -0.57629191417044
H          -0.45629121799330   -0.37656314011460   -1.68003206575330
O          -1.02453540543594    0.43022652476120   -1.72503207573404
H          -1.85442007060060    0.08581770608338   -2.07318101715536
O           1.11577482437840    0.63282380619316    2.08156108415508
H           1.34010892220690    0.03119979948075    2.79210402346828
O           0.49587315979769    3.10752564785192    1.03348202348475
H           0.82139848329683    2.35544204414693    1.55264156417175
H           1.05811456157517    3.85349167336785    1.24697606012204
O           1.29412361494709    1.98437294599246   -1.38493950485837
H           0.50488625633559    1.62897492233995   -1.81084036366920
H           0.97040617508396    2.49795135706317   -0.62493225095370
O           2.10877406907416   -0.24336023172786   -0.10507835508253
H           2.00203857597279    0.55025012306947   -0.67653036852683
H           1.58355163104278    0.27205825335567    1.25235810894208
H           1.51112712777333   -0.91301422343965   -0.48630462978425
N          -1.28454579922490    0.21344183608412    0.94431690241797
H          -2.11511377230450    0.60417711620148    1.37598501978022
H          -1.22066950697236    0.49168182770815   -0.06902546688042
H          -0.41389424430925    0.50314665222967    1.45423913529616
H          -1.29988458233182   -0.86459258433088    0.95548046207516
