    26
        -50.45099315  Gyration_radius:  2.71349782387 Dipole_moment: 4.599
 S          -1.24616187363462   -0.59620515188269   -2.36240298130646
O          -2.47197920075573   -0.51799993203966   -1.56251727940354
O          -0.34121281497119    0.49502213593704   -2.10819906307916
O          -0.62442964309005   -1.90889222549718   -2.23065918955211
O          -1.71167804396922   -0.47546050670882   -3.87667676519377
H          -2.31632317575714   -1.20566566470060   -3.97129877427874
H          -0.05701930636611   -1.98575038843257   -0.79846697783654
O           0.21011702793872   -2.05901245350699    0.16876183505464
H           0.08123452040707   -2.98310758999221    0.39145113215863
O           2.20016292368192    1.54947464845573    1.14973987920624
H           2.98130585250623    2.05772630112876    0.92810128167588
O          -0.05093462384638    1.22214165491746    2.87199189113062
H          -0.36060034203616    2.12586875722735    2.95210998040632
H           0.79539005602378    1.28363261183940    2.40796711410906
O          -0.18467287580797    2.18119166164642   -0.07374614198639
H           0.72229948906843    2.06779582224725    0.26324450661653
H          -0.19797357502436    1.75599679297619   -0.95601958768137
O           2.67236548861685   -1.01216667393583    0.60502019153340
H           1.81233646768793   -1.37964401622444    0.31726845750591
H           2.39504643156989    0.61762372013496    0.89169600571808
H           2.93017592932012   -1.50543253322336    1.38599218300419
N          -1.46591649444211    0.04928538528267    0.74918008684936
H          -0.96546191296232    0.98140485042300    0.56745582242427
H          -2.04241772642769   -0.15424010556757   -0.12387120381044
H          -0.75900736680349   -0.70226478294871    0.80607593842014
H          -2.00464521095821    0.09867769252241    1.60780165831495
