    26
        -50.46173949  Gyration_radius:  2.46532878368 Dipole_moment: 3.765
 S          -1.47430948305356   -1.84068223514508    0.20428452547662
O          -0.12976109753676   -2.40491305157441    0.35316721314655
O          -2.47070236646445   -2.74053939234191   -0.25996132623107
O          -1.88676155659978   -1.33210016292325    1.64220880784854
O          -1.38469104697146   -0.60180900089158   -0.61235804151607
H          -0.46709883164129   -0.26755710944121   -1.85866856013620
H          -1.10640829995677   -0.83967602820722    1.94122318280889
O           0.19732875219941   -0.02929294451988   -2.56181801585366
H          -0.22582536071028   -0.21426378201994   -3.40077761771987
O          -0.05542183104736    0.56108363898049    2.37807018046327
H          -0.22322976902345    0.85428203434101    3.27510994051446
O           0.67392657413950    2.25221154990682   -0.94877969637320
H          -0.17140449755142    2.28133670981087   -0.47913763838982
H           0.55477622205327    1.60705266252580   -1.66140107755883
O           2.19516006973521    0.91355685235484    0.78953801778220
H           1.76650560741299    1.55859712968570    0.17863225482739
H           1.54747723007495    0.76364032357295    1.49698301398044
O          -1.63893142040084    1.66005307446046    0.55062699519283
H          -2.56853850357473    1.82902580613040    0.70945277714219
H          -1.59903893473203    0.78258437521725    0.06928939666057
H          -0.61474466708220    1.11369048330766    1.78201219106622
N           1.84400868731946   -1.19043337524153   -0.73105238265395
H           2.63498490654428   -1.80195013012399   -0.89602857099403
H           2.10278603313636   -0.37310254063300   -0.08909437670920
H           1.46741550085188   -0.80618560402484   -1.61280295017886
H           1.03249809275665   -1.73460929294534   -0.25871822256664
