    26
        -50.44895200  Gyration_radius:  2.42706151694 Dipole_moment: 9.109
 S          -1.20466920566028    0.35433633089356   -1.83901861745095
O          -0.99819423399376    0.85531860967747   -0.47556237465569
O          -1.92596732730233    1.23338251284493   -2.69192208191915
O           0.32142121268383    0.22599738177618   -2.41363881534299
O          -1.63944450752586   -1.03434994128912   -1.80549575753659
H          -1.44702206296579   -1.60002320412567   -0.39307638978063
H           0.75940646092904    1.04892074108670   -2.09246121034082
O          -1.12413259603212   -2.07574872298576    0.43761337558498
H          -1.70545904490013   -2.82896665737371    0.55208106721680
O           2.10947800930097    0.20528456586995    1.11876906050649
H           2.80015796466641    0.11775223314533    1.77682079240454
O          -1.83450774086927    1.76940129112546    1.86677543103863
H          -1.68783406619971    2.71615463084820    1.84478706362180
H          -1.70834952451527    1.45491591975486    0.94961146513424
O           1.24827741415811    2.10914907299913   -0.84466128422334
H           0.33525352510736    1.90313655544133   -0.55624792717624
H           1.80917568874330    1.67153597158204   -0.19061865971512
O          -0.10816777911235   -0.25154062422060    2.33776856335843
H          -0.70277687703207    0.52563018758199    2.35240673650444
H           1.23445390625845    0.12283661562860    1.62322408624366
H          -0.56744566272214   -0.88718279735582    1.76642173610741
N           1.22856014005171   -1.55083301123924   -0.66969982640916
H           0.86404581336195   -0.94464744575385   -1.45533493987566
H           1.72193692053722   -0.91214543985826    0.01250030362342
H           0.38307528948963   -1.94873435546089   -0.18596085145153
H           1.83872830353087   -2.27958041059064   -1.02508095546618
