    26
        -50.46794025  Gyration_radius:  2.44509694455 Dipole_moment: 3.631
 S          -1.61884287417879   -1.41158215433697    0.84785554964694
O          -2.02851945996218   -0.88898110996159   -0.44406383647767
O          -2.62788156669048   -1.43995208770344    1.85685838976800
O          -1.21847462924107   -2.94652576825499    0.57783819066412
O          -0.36187225631180   -0.77827745379190    1.26690158223054
H           0.08796229900405   -1.31425818709995   -0.32869923262282
H          -1.77972329870116   -3.40344266768672    1.19536511157023
O          -0.41019900975130    1.88703594781641    1.35623947590568
H          -0.48429806729434    0.92772470242197    1.53562348364102
O           0.58675005647423   -1.54861365508744   -1.13284196610111
H           0.02498177116905   -2.17684185704056   -1.59050279685348
O           2.32714096504874   -0.89905158139084    1.03017300307675
H           2.28511221178533   -1.42370271788670    0.22184188613491
H           1.42096899671537   -0.94354923413235    1.38706276540064
O           0.77109127919936    0.98695763652718   -2.09725066298536
H           0.73692282012555    0.02255017111602   -1.93378891928754
H          -0.12939908646269    1.30493442315056   -1.90185081283936
O          -1.69177324126567    1.59765095990542   -1.05381878368452
H          -0.97902991822818    2.03107519957296    0.58031662910512
H          -1.85066947105818    0.64159534205352   -0.83052172252480
H          -2.50955518948892    1.91308739809294   -1.44068860586024
N           1.92158675283206    1.59595950072225    0.18157188905304
H           2.24969560946013    0.66327067213722    0.55080024944405
H           1.05274220368549    1.85706204683084    0.74340597994839
H           2.64377006535828    2.30367107592227    0.24104189631184
H           1.58151305775712    1.44220341813262   -0.81886874264105
