    26
        -50.46142654  Gyration_radius:  2.53694194835 Dipole_moment: 3.743
 S          -1.94425065026101    0.99753011930247   -0.03460803265144
O          -1.68692256904361   -0.39311568480963   -0.45665097032795
O          -2.85081276922801    1.11701704488678    1.05556479551829
O          -0.65121024168435    1.65696742063500    0.17829256329805
O          -2.58935591071203    1.70177307917125   -1.29790645634590
H          -1.97290749222673    1.61058921652536   -2.02870936204636
H          -0.62233338365135    0.71137557955466    1.60275599762157
O           1.85060691880170    0.76462421939410    0.12588495698403
H           1.00690644110149    1.26248727382944    0.12041739476299
O          -0.56999184127134    0.05284029318595    2.31874762700791
H          -1.45602734669618    0.04598522879694    2.68925259162156
O          -0.17230143513650    0.33150966851011   -2.46297638233738
H          -0.77259694891567    0.02924181778562   -1.74452617157161
H           0.51126753009847    0.85883318827914   -2.03877939832951
O           0.77472452413393   -2.20938435621935   -2.54800320985915
H           0.12483460478933   -2.75859737158373   -2.98889931769268
H           0.51441260052165   -1.28026519267823   -2.72991889703603
O           2.05096028935262    0.59849465857680    2.81796071706549
H           2.09724351204762    1.39040904230951    3.35576326726002
H           2.16036023493188    0.80429029155066    1.05308149616474
H           1.11588714384977    0.32163533878489    2.81651097012652
N           0.62604646849294   -1.55470579724439    0.05540496602036
H           0.79884571314362   -2.04251211225764   -0.85120948912410
H           1.24942396296096   -0.68101584363529    0.09814827423922
H          -0.36382481705027   -1.19122956071021    0.02744101907807
H           0.77101544189938   -2.14477756206182    0.86696104075543
