    26
        -50.45577250  Gyration_radius:  2.52412689716 Dipole_moment: 7.639
 S           2.00856523574108    0.32215111067183    1.43753821819112
O           1.54239813687305    0.70224347518806    0.06339636002216
O           3.42160416058916    0.19357533736894    1.51038767183631
O           1.53971691336535    1.47812428308003    2.36632626408705
O           1.26892999537654   -0.88774941323793    1.82152905861715
H          -0.15376450580001   -1.10138803106734    1.43866843521913
H           0.55001646935239    1.46876391347100    2.34197836616322
O          -1.08718778639067   -1.27581235185253    1.06805116022619
H          -1.50611785893883   -1.87372862025948    1.68862337293244
O          -0.58034532704603   -1.05021329676091   -3.15250892890685
H          -1.13782271878747   -1.62579705830168   -3.67712756335731
O          -1.06380786360347    1.40646570423695    2.00471375098666
H          -1.27966032799518    0.49744823955792    1.74847680789958
H          -1.06489730432873    1.92281582324575    1.18142595378228
O          -0.44332370093591    2.27432105053289   -0.50592635153671
H          -0.13491371636129    3.08212524238790   -0.91728538360108
H           0.36516644741735    1.73065822990802   -0.31642505493348
O          -1.97169863028320    0.13483980055298   -1.25297875753604
H          -1.82992189357314   -0.37772870171707   -0.44512814546716
H          -1.54225982859438    0.99390204415478   -1.09231310110343
H          -1.18547729277599   -0.52931612872745   -2.56434758883229
N           0.86337308326547   -1.52642762320915   -0.96806278027815
H           1.63509766676136   -2.18414111175214   -0.94068340356184
H           0.12335088124977   -1.79960179174337   -0.30695892739799
H           1.21310463269057   -0.55319019409109   -0.60318898368811
H           0.44987511273539   -1.42233996163328   -1.92818044976318
