    26
        -50.44170453  Gyration_radius:  2.53793729031 Dipole_moment: 6.398
 S          -2.51452419523488    0.06867838959498   -0.43613575328134
O          -2.03121814090539    0.41779336291485    0.87113999637287
O          -3.78008988166345    0.56633086722690   -0.83178987818699
O          -1.41381760292745    0.47767203011617   -1.47491266409565
O          -2.50382342843790   -1.47429717859919   -0.58557969892526
H          -1.63048990324918   -1.78373977670161   -0.22135042394023
H          -0.86043678723743    1.21817394833073   -1.07485160920459
O          -0.13867067548406   -2.25235674026434    0.16667532701487
H          -0.05635618243403   -3.20694451706870    0.12722854879667
O           2.35577876340147    0.90648662503433   -0.09031740295131
H           3.05521700942768    1.42845737366890    0.30595958986272
O          -0.27793751506497    1.30721479878376    2.68643616744444
H          -0.77601590450160    1.22148684185999    3.50072237587175
H          -0.91392318089244    1.12343470628197    1.96952392078882
O           0.14190819712656    2.29633622556950   -0.57532283609572
H           0.96954863718610    1.80184312431625   -0.34744413954639
H           0.37015054783158    2.92797823334249   -1.25984859198269
O           1.41400794695973   -0.58272596101383    1.81736406175487
H           2.03701110679604    0.29592634641839    0.64163574186019
H           0.85281095964358    0.09960068208295    2.24616125770970
H           0.79722752523370   -1.20369902503920    1.40245137977020
N           1.05583524018652   -1.12379799741981   -1.86968847596424
H           1.72054915160033   -0.46185785254465   -1.48126114597850
H           1.49307261613470   -1.59841127724021   -2.64838897182473
H           0.37304015646634   -1.87517016110978   -0.62454996501083
H           0.26114557003843   -0.59441306854586   -2.21385683025721
