    26
        -50.44840766  Gyration_radius:  2.46571918078 Dipole_moment: 5.057
 S           1.49310238764710   -1.49645028402819    0.75583291315022
O           0.43767509894477   -1.47912669009751    1.87229156703623
O           2.43482543968619   -2.52016239721518    1.01235937134756
O           0.81404525099002   -1.54120973407409   -0.52361480467200
O           2.16595760489241   -0.09594155216553    0.86848253898840
H           1.93940627451104    0.46867161200872    0.07207044429745
H          -0.75097529999354   -2.16047014042189   -0.27297697709614
O          -1.66496722771485   -2.33657731451911    0.02900920594170
H          -1.58360226032115   -2.55367470236424    0.96124035834506
O           1.65116358253495    1.50266779559169   -1.10423513887435
H           2.37255568798574    1.46957715014610   -1.73425519247877
O          -2.62962677888397    0.11502415667628   -0.33189382863379
H          -2.36785199905243   -0.83671912563575   -0.27156578509012
H          -3.55002442092748    0.16055866200595   -0.06894552529737
O           0.87526721606379    2.58360006987966    1.31253516742343
H           1.61712944276518    2.26467894363083    1.83228014672018
H           1.12718397344917    2.46270436965795    0.38463064003818
O          -0.91803477987741    0.62584593223279    1.70405499074928
H          -1.52047305952726    0.58153351704313    0.93292500358342
H          -0.12344129319696   -0.60955245871671    1.82373063371253
H          -0.34350135470208    1.41459796846393    1.58530484189091
N          -0.38550209988845    0.39764756600934   -2.25256974633380
H           0.82418432584686    1.13394291137119   -1.58635471381647
H          -0.09830474443399   -0.53462664606742   -1.96453931574549
H          -1.26540267544049    0.59224204060498   -1.78538365583042
H          -0.55078827134499    0.39121835005224   -3.25041313930435
