    26
        -50.46815424  Gyration_radius:  2.47614612346 Dipole_moment: 5.895
 S           1.00898249251997   -0.36895434112163   -0.36270071923043
O           1.38225894084736    1.01318816011043   -0.03305437487607
O           0.02475111340690   -0.38456096828661   -1.43697335553943
O           2.29678995221371   -1.05874296672208   -0.86028453328358
O           0.53191352373926   -1.06574231010542    0.82446151829007
O          -2.10285933597514    0.91125877985567   -0.44265451954599
H          -1.45380406819427    0.34746222351942   -0.90560790907313
H          -1.73594959119423    1.80619356000211   -0.51003968882499
O          -0.28684848856816    3.02524828954837   -0.58436934860207
H          -0.21611440813226    3.42368235732014   -1.45287730577788
H           0.38322454167619    2.30951035487999   -0.55704754438416
O          -1.54220689832930    0.07087930663960    1.98442505607683
H          -0.85659904802757   -0.56206561277328    1.67470011469817
H          -2.00985934021811    0.32676552012550    1.14955917226323
O          -0.47604677724967   -2.89380166467152   -2.11701050508141
H          -0.35933053220887   -2.96186252072938   -3.06595239723641
H          -0.39146535756018   -1.94081631054359   -1.89835776336590
O           1.39480584104901   -3.37292196943325   -0.26366479073445
H           0.70533371524820   -3.46382598447722   -0.95521766238341
H           2.10832688388599   -2.03116923171712   -0.69497913129572
H           0.95869576027236   -2.90761526851089    0.46574218578838
N           0.13696009900459    1.98568861243248    2.04151323836967
H           0.79181089082503    1.56260741336052    1.31777122801103
H           0.61826473119725    2.19587540754692    2.90871463347422
H          -0.25602769873338    2.82547528855366    1.61618824910074
H          -0.65500693150093    1.20824391519589    2.15771613317013
