    26
        -50.45684128  Gyration_radius:  2.39261429792 Dipole_moment: 8.885
 S          -0.14095796691649   -1.03904540061013    1.81766848720313
O          -0.77349142568771   -1.82565287368981    0.76099565736018
O           0.14378695325676   -1.73783695353467    3.02089024529043
O           1.26582789167089   -0.56608298274386    1.16351039859418
O          -0.83211513785918    0.24398316043734    1.99525738553489
H          -1.55438893694645    0.95394931766389    0.80280282117984
H           1.52716530477120   -1.34939480548252    0.61225365278012
O          -1.81355455121051    1.51027870310902    0.00777816009088
H          -2.16254762849555    2.32485883105573    0.37376874641735
O           0.54723845536735   -0.61241442520474   -2.56745834076013
H           0.50774059761599   -0.76523159232660   -3.51187071172039
O           0.78334391635658    2.37104759392814    1.80762252299051
H           0.20352385123870    1.60532106191473    1.99607358601611
H           1.23975102777046    2.54966121548612    2.62987852014125
O           1.40019463477968   -2.46908690353392   -0.56465753926027
H           0.51160810072385   -2.61938793043532   -0.18987018674760
H           1.25790240010815   -1.97698473948032   -1.38802077305567
O          -1.77450228459638   -0.86734419299751   -1.45795505630668
H          -2.12620110875698   -0.01621287822581   -1.16962955602794
H          -0.38392579913052   -0.76126508252506   -2.21628286157311
H          -1.51378114657430   -1.32147459911507   -0.62150933803559
N           0.75204204964443    1.29152534269494   -0.68591492727441
H          -0.26160883847988    1.53208339323023   -0.50977758977669
H           0.84351220594117    0.74609635891490   -1.56656202004607
H           1.32016799281175    2.13274258941415   -0.65367311503264
H           1.03326943258707    0.66586778205546    0.11468182204783
