    26
        -50.46441825  Gyration_radius:  2.5155934539 Dipole_moment: 2.612
 S          -0.69205672294108   -0.58437427417853    1.64076487295583
O           0.65848993954797   -0.04697389618570    1.37338331576268
O          -0.70452892627398   -2.01488694656262    1.56441529712951
O          -1.09305401601839   -0.11995591216374    3.06865524194153
O          -1.65800983698153    0.03156760372278    0.71019262514646
H          -1.46944675378398   -0.91983420203636   -0.56939556808946
H          -1.13009573215805    0.86503438521925    3.01660212048040
O           2.61150869512566   -0.31050300079439   -2.27722318090480
H           3.23068019206966    0.37646214904327   -2.02590367519591
O          -1.20805720377263   -1.50578656615323   -1.32647043200874
H          -1.76980611982459   -2.27897065866456   -1.24542054660621
O          -0.19720214906556    2.05793731297825    0.01286011363029
H           0.53041810401175    1.59942159984465    0.46425013610910
H          -0.93071289366366    1.41144194755413    0.12267186132642
O          -1.30063193600149    2.47137186599203    2.53000390499010
H          -2.23713712866208    2.57145096673372    2.34309666260441
H          -0.84035131487260    2.58421859046781    1.67674869901902
O           0.21833856515516    0.79982386195244   -2.41625820425395
H          -0.42368564747626    0.08853773180504   -2.30862364282972
H           0.07885536181802    1.40756343757499   -1.66492062719999
H           1.75777248548396    0.14935514075420   -2.48308976552269
N           1.33898177513737   -1.75136444950364   -0.44832070199853
H           1.19774650429472   -1.08318450376954    0.37452108787648
H           1.98576386609876   -1.30854042472593   -1.15408478219003
H           1.66394663535238   -2.65066614764153   -0.11055181772917
H           0.38227425737847   -1.83914561123468   -0.86790299443075
