    26
        -50.45420262  Gyration_radius:  2.65216694717 Dipole_moment: 5.872
 S          -1.38874661487278   -2.40606914596027   -0.77387473581623
O          -0.27117409170674   -2.34622554841463   -1.71684515607661
O          -2.51258804469625   -3.16276481435880   -1.21832664223301
O          -0.80991709560934   -3.19356417581456    0.51560421831291
O          -1.67167869234925   -1.06535813162605   -0.26562477606449
H          -0.58836147153263   -0.87752584994084    0.90679228616084
H          -1.07985182515019   -4.07967537276527    0.30045653539679
O           0.09663550666084   -0.77513227778411    1.61719549528024
H           0.15678639393005   -1.64910049672143    2.00835244090795
O          -1.22001938468110    1.54829008512059   -0.59315964392377
H          -1.71685440693324    0.71186083172075   -0.60523859851082
O           2.30539606494273    0.25530331867917    0.43647182552633
H           2.19662171107040    1.21238250024352    0.52635239770153
H           1.61654382256291   -0.15471825906604    0.99990729804859
O           1.29592486763777    2.85194913429551    0.10287384333231
H           0.44055270429375    2.63501858784084   -0.29494503445350
H           1.47543615328427    3.77026116031378   -0.10093848085305
O          -0.64784324502468    1.83979202964037    2.02916801409134
H          -0.45969043788721    0.89161637707489    2.12891638463380
H           0.20523250631309    2.28221543982706    1.98436352204311
H          -1.17403807353837    1.74818887902753    0.36961198339564
N           0.76116147839852    0.00594247793538   -1.69193331929231
H           1.11314027688439    0.26531353326551   -2.60671631552554
H           0.00635969628491    0.65561954219980   -1.37389945519147
H           0.34594665553914   -0.99220486454760   -1.72712436581788
H           1.52502556616051    0.02858503975325   -0.95743970106230
