    26
        -50.47229297  Gyration_radius:  2.48041164429 Dipole_moment: 1.996
 S          -1.50088811100337   -0.50919088220226   -1.63817930366802
O          -0.38633938117017    0.43352190430991   -1.64553376329313
O          -1.07587385167825   -1.83906839071263   -1.25191930993905
O          -2.62687583955154   -0.00607742862815   -0.87563189861776
O          -2.00847461874844   -0.62095061817862   -3.13532129450240
H          -2.56211820892783    0.14964309736517   -3.20277883340733
H          -2.17677808084902    0.03615272069849    0.65979420158175
O          -1.86118254454423    0.14209892056570    1.59363965338840
H          -2.60214304489484   -0.10223301125450    2.15046681667841
O           1.88736729024125    1.57924994401650    1.18348827106217
H           2.34514967761237    2.33785629750114    1.54603257350934
O           0.68111831011474   -0.67339242448516    2.20805920337160
H          -0.25188871775418   -0.42048092098389    2.07412982618274
H           1.19640381783828    0.13210779692898    2.02136354995501
O           2.25216213544751    0.18845691193017   -1.17414551845317
H           2.32036724349124    0.76031096691922   -0.38834025074733
H           1.37004847899407    0.38107029322934   -1.54690850417724
O          -0.48479820812519    2.22439708385927    0.31968411649225
H          -0.50304194292083    1.67557360475484   -0.49203403640687
H          -1.09141185433566    1.77899252982483    0.92706048806078
H           1.00045243445084    1.91099359199401    0.86032751664046
N           1.23302343323912   -1.94351789429947   -0.03500544987040
H           0.30623946762551   -1.99348882282860   -0.54476584270005
H           1.69212411345146   -2.84652926957912   -0.02015220852024
H           1.80817791968547   -1.20027608154384   -0.53646706118757
H           1.03918009230558   -1.57521990919608    0.94313706855722
