    26
        -50.46395088  Gyration_radius:  2.542667776 Dipole_moment: 4.327
 S          -0.91091935430369    0.93131574573806   -1.67591419299767
O          -0.76862048497961    1.78668740445345   -0.51254369106131
O           0.36827613657896    0.66466930978089   -2.31926809758285
O          -1.65264836414494   -0.28705329072128   -1.39554349542290
O          -1.78466253434892    1.72786656543114   -2.72822615918766
H          -1.23131107288746    2.47064871934237   -2.94843422901360
H          -0.99386274328749   -1.62619782974694   -0.72751008695999
O          -0.52913527447459   -2.37303548024618   -0.27745150124982
H          -0.98494797551681   -3.17094537773219   -0.54897617942379
O           0.81819846516974    0.87376322688723    1.42703598205146
H           0.26172042491214    1.39915075676613    0.81598128927504
O           3.62329995904046    0.28080429018078    1.14964210953661
H           2.81522122830705    0.68916217888671    1.48986759110995
H           4.34310623030505    0.61357155464809    1.68661468713067
O          -2.85341155231658    0.55835581450193    0.84865284785086
H          -2.63529224444038    0.16266540722892   -0.01313984753438
H          -2.42662119983167    1.42096900061659    0.81584586039410
O          -0.98149296966276   -0.90388975172554    2.13787965361912
H           0.18350330143928    0.26314790474719    1.88685096051855
H          -1.78327312399955   -0.42008260766600    1.84479263193295
H          -0.84189166824389   -1.59345734904172    1.47422663773012
N           1.61606472794817   -0.72035898989676   -0.50162701449144
H           1.35574664205678   -0.11069384181851    0.34236010137535
H           1.25713553195765   -0.19361481011682   -1.34639629606596
H           2.62810017917591   -0.83082376665424   -0.49755703909542
H           1.10771774548952   -1.61262477394358   -0.42716250245180
