    26
        -50.45891807  Gyration_radius:  2.53413852384 Dipole_moment: 5.762
 S          -1.66867004179354    0.15505462857317   -0.47458088136560
O          -0.78169160732255   -0.13143112425598    0.65713015893519
O          -2.62085944102662    1.19528234985048   -0.19326636947043
O          -0.65746340507206    0.72860807468960   -1.59031472222217
O          -2.19404076024328   -1.06136653840267   -1.05092608230685
H          -1.30124357248328   -2.33858751124312   -0.76828535502133
H          -0.66350264297783    1.71841046271950   -1.43515714324697
O          -0.62085059528530   -3.06918718019741   -0.78824045067481
H          -0.95516365785826   -3.70954617816638   -1.41925398260663
O           2.93025747292725   -0.93658596061004    0.66192216628595
H           3.25629666713959   -1.75614242988343    1.03805324672053
O          -0.45781811108687    2.26772367872223    1.67071756057722
H          -1.25771651085576    2.51145303032057    2.14061708381433
H          -0.64342862527466    1.37728504929124    1.29112535917270
O          -0.97626768374993    3.15939270686500   -0.83870962929193
H          -0.56098582960473    3.12410560769476    0.04475191694534
H          -1.87922064782951    2.82992748419731   -0.68371066284280
O           1.23092100326885   -0.03917181168676    2.42943125143242
H           1.15298167158787    0.91643646187900    2.52566902918151
H           0.44307227701738   -0.29303033776398    1.91586714368033
H           2.36799346052481   -0.52417801109038    1.37426330141130
N           1.18654574913255   -1.22518296922539   -1.31342099222644
H           0.55093010131953   -0.40074536250787   -1.36554842909429
H           1.89111303264316   -1.09377695694676   -0.52641200871247
H           0.56340002776377   -2.06021905201074   -1.10048187238504
H           1.66541168914599   -1.34452810082616   -2.20123963669082
