    26
        -50.44216566  Gyration_radius:  2.42375052218 Dipole_moment: 7.306
 S          -0.06390956264064    0.44247333361511   -1.65948660941104
O          -0.47964903844792   -0.74612462073327   -2.39218357054628
O           0.17334667719201    1.60393332196405   -2.46431130521698
O          -0.97953377208922    0.68758614645024   -0.53446148635106
O           1.32330233074088    0.05730457119993   -0.98501995215106
H           1.16312341516097   -0.14736647399215   -0.04567513537108
H          -2.05471727235939   -0.33054697651552   -0.16661225207896
O          -2.64419602036736   -1.01968595805784    0.28131396777748
H          -3.21328617012417   -0.53431843493643    0.88113207914471
O           0.98268025010868   -0.40443820851870    1.65429935937205
H           1.83415809869446   -0.49079262585257    2.08346723038577
O           1.73651049241266    2.88338912211190   -0.73490675380546
H           2.58069205710728    2.50092492003119   -0.98137579623976
H           1.10491455584728    2.52997254787237   -1.39613020072525
O           0.11994410469766   -2.85137549625809   -1.17518603381080
H          -0.06630536856145   -1.98746656248376   -1.69603011172760
H          -0.40510364255074   -3.52619456252936   -1.61163651843552
O          -0.66601077390676   -2.30439076841254    1.11146055348522
H          -0.02607299778618   -1.58725657574916    1.41672179578908
H          -1.55872331764190   -1.81534235435037    0.85982180096960
H          -0.29510306905405   -2.61697319227652    0.14310370748611
N           0.28007828032904    2.03079663214473    1.54355617806670
H          -0.00929806062350    2.66866026467097    2.27312922331938
H           0.69180350845333    0.60559447312134    1.72439855981602
H          -0.50427975976948    1.85597015206395    0.91614915630201
H           0.97563507517152    2.49566734542349    0.95446213394595
