    26
        -50.47114558  Gyration_radius:  2.41067669897 Dipole_moment: 3.628
 S           0.65411770890166    1.84704535457731   -0.42669078314043
O          -0.36305598256212    2.02085628584447    0.59728834116132
O           1.81003565681657    1.09529282733749    0.03296090512494
O           0.10511119467755    1.31393220909964   -1.66157918026772
O           1.19520162304896    3.29788165564723   -0.75881547532433
H           0.39540747523081    3.77029109060119   -0.96346796572233
H           1.40955623382320   -0.22643969309487   -2.43641817941697
O          -0.31553645331968   -1.60203700362604    1.93235050519015
H          -0.26590755184867   -2.16934070252639    2.70254638528028
O           1.91266665445902   -0.74941882546355   -1.80056858759373
H           2.07883507096127   -0.10266655666136   -1.07777756682826
O          -2.31439379271602    0.18941065875208    0.91087467519135
H          -1.71467264845494    0.95678705111755    0.84246461722396
H          -1.82518095241271   -0.47883604506756    1.40933347797802
O          -1.85488395607385   -0.48205225325934   -1.60217227431839
H          -1.22730175109063    0.25184548889961   -1.77492236867145
H          -2.27950872735500   -0.23659538132875   -0.74575729751603
O           0.93186490508017    0.61679117539263    2.45695549397609
H           1.57004820887084    0.69423393665985    1.72369488588385
H           0.26889861221308    1.27898397959347    2.20350553950139
H           0.19858928984961   -0.77333839093005    2.16779701163451
N          -0.06740207299810   -2.13553981279178   -0.73840185397978
H           0.81555424735961   -1.69298916197346   -1.13514884748117
H          -0.08750273639218   -2.03115756153623    0.29459788989486
H          -0.88839959889988   -1.54261937325552   -1.14649990421927
H          -0.14214066699732   -3.11032095074609   -1.00614946337702
