    26
        -50.46474869  Gyration_radius:  2.55976461404 Dipole_moment: 3.026
 S           0.36695080077511    1.71419180543629   -1.26781587839207
O          -0.85129152710975    2.33034115061494   -1.73756594113361
O           0.32226927068283    1.42457409025518    0.17015307723743
O           0.76680060562875    0.54010928807994   -2.01525368356945
O           1.51674297599602    2.78898667644973   -1.45918195529927
H           1.05583997036960    3.61489173772792   -1.34897041488437
H           1.23260997097811   -0.92828697013655   -1.48212004888901
O           0.17263257854784    0.36885305062754    2.90918006552182
H          -0.01403447298481    1.12750294871851    2.34689666582939
O           1.35901865867679   -1.81734924546402   -1.06649488075503
H           1.80231541518273   -2.35937828534738   -1.71990446095067
O          -2.13313490267947    0.06235583255133   -2.14569607905501
H          -1.81339322617939    0.98241525375261   -2.01498264532797
H          -1.65492646356869   -0.25276136449838   -2.91613113464233
O          -1.74853590463837   -1.42592544391723    2.56218866530891
H          -1.56664763106530   -2.19590927473447    3.10199669254009
H          -1.10353800480153   -0.73053636918618    2.84290116376827
O           2.17773993758000   -0.29998735483624    1.17646817015817
H           2.12182843433851   -1.02536770776992    0.54115410061541
H           1.74863907122316    0.45381495585643    0.73891439106874
H           0.99410021567362   -0.00486411308360    2.53651949596538
N          -0.96753384349272   -0.89873829158733    0.05743321775669
H          -1.62395976041813   -0.70086280596008   -0.73384417093259
H          -0.24347144357641   -1.56229258063610   -0.25301658492569
H          -0.48403640515457    0.01595525994267    0.24085764924303
H          -1.43298433035029   -1.22173225285671    0.93631454383687
