    26
        -50.46573164  Gyration_radius:  2.49322472425 Dipole_moment: 3.961
 S          -2.13912643602939   -0.26157128443677   -0.52549958428821
O          -2.95576827938555    0.91369278540234   -0.44164902341535
O          -1.16254536000932   -0.23038718294407   -1.61047957133296
O          -1.50637576988726   -0.63423928034773    0.73614638907381
O          -3.11143929438735   -1.48717100457444   -0.85269289850287
H          -3.80132946923143   -1.10148511642939   -1.38407046895768
H          -1.26363670093076    1.10326678036277    0.94680238205991
O          -0.89491137513873    1.99025853838922    1.10651706558037
H          -1.62881813532235    2.58290741478050    0.92467461742469
O           2.85442741737680    0.91373675668080   -0.97397036888591
H           3.37737736281364    1.64766002974023   -0.64905796591560
O           0.52116521219658   -0.13335946923755    2.42796622512427
H           0.41853568570364    0.82463348413950    2.39389792025997
H          -0.29253679179509   -0.46837444255397    2.00641317402974
O           0.03922855237658   -2.35312098695693   -0.73814150874402
H          -0.61381777023883   -2.45738820845390   -0.03705070280700
H          -0.33373757036179   -1.60961038081187   -1.26789451294330
O           0.45518695388535    1.87665312162836   -1.28876094943012
H          -0.12301851305733    1.15485636986425   -1.60134399790722
H           0.09652472557222    2.11009099736266   -0.41423290665199
H           1.96009364522048    1.29605697573053   -1.20257186687298
N           2.04255570427975   -1.14273420142652    0.49409019685023
H           1.30047370766795   -1.67017743787682   -0.06330367859749
H           2.43272429099984   -0.36201217691996   -0.10006746554047
H           1.54870484886017   -0.72609343726911    1.33132429863637
H           2.78006335872339   -1.77608863384942    0.78295521185180
