    26
        -50.47014110  Gyration_radius:  2.40826056579 Dipole_moment: 4.175
 S          -0.49435551826105    0.64765937102934   -1.67681222957144
O           0.93326969642317    0.90514084055500   -1.41370611708060
O          -0.72130797590431   -0.23577578325078   -2.77679449653145
O          -1.09902154361010    0.11092551066968   -0.43193542609653
O          -1.16832548244021    2.01748375638612   -1.94619724513573
H          -0.67678612607515    2.67286572588417   -1.38323784559728
H          -0.87492391466958   -1.53860589899260   -0.97024327627690
O          -0.48319017018730   -2.41965798171384   -1.12959701863035
H          -0.51176609548707   -2.50139435331338   -2.08736622991462
O           0.94386532634669   -0.69768619029181    2.30784571236707
H           0.09552326875066   -1.19089500369003    2.29013887751248
O          -1.45222132256826   -1.70812438545646    1.62586281969441
H          -1.53572778765245   -1.02248822343383    0.94430563335590
H          -1.44112364898788   -2.54058452998689    1.14707121980125
O           0.44505856896928    3.30538626302924   -0.36182589231857
H           0.20523850646282    2.96186190913753    0.51564988978990
H           1.04783018691513    2.64068552048619   -0.73184934613468
O          -0.41115830965175    1.58443867704500    1.60106191328765
H           0.67285453869420    0.23602808927356    2.24325724325777
H          -0.69320799536814    1.04703303104055    0.81629991159492
H          -1.20206562919999    1.72287206469740    2.12563095829055
N           1.71438669523571   -1.21676042787707   -0.14146053096789
H           1.51601623472790   -0.31362904269548   -0.67601143028261
H           1.50541888207403   -1.03077414810767    0.89750246004447
H           1.01731246940518   -1.90690093621868   -0.50292847984594
H           2.66840712605355   -1.52910385418766   -0.28466109460896
