    26
        -50.43928561  Gyration_radius:  2.45358569798 Dipole_moment: 5.177
 S          -1.44549008492575   -0.19922640057249   -1.46870173264085
O          -1.28399980118020    1.09773180924863   -2.05109571014869
O          -1.23333042280055   -1.32033798593849   -2.32793798142914
O          -0.46769761752604   -0.32767253561612   -0.25151064182793
O          -2.79758761977122   -0.31329546493635   -0.74559828734302
H          -2.70801701366369    0.26736970845210    0.07274728657824
H           0.40905000532271   -0.60866329939806   -0.65058609384920
O           1.47234209169999   -1.28660700329819   -1.60631615806052
H           0.80452592820586   -1.55256913367218   -2.25375466688600
O           0.32280772349440    1.73675396475200    1.45133125445366
H           0.43332638574667    2.60420980095498    1.84437927061259
O          -2.29032354396441    0.99516117731567    1.41708400632904
H          -2.28020240679053    0.28953956290931    2.06902887129975
H          -1.35432879787904    1.28946799939251    1.33915871631009
O           0.79748760250364   -0.90391932774475    2.31215220168975
H           0.55056815742888   -0.06341387305555    1.89224822855391
H           1.64420962320595   -0.75481866898723    2.73693349067865
O           1.03915101236703   -2.91347970158985    0.45783580837058
H           1.55908500257563   -2.03710091975837   -0.97555749530213
H           0.94147836704370   -2.23276648014313    1.15463506332506
H           0.15978147716828   -3.26764582024226    0.31345657255858
N           1.23066036441468    1.93745280681966   -1.03376407946780
H           1.64480380552586    2.79240040839241   -1.38491924618253
H           0.68091532584853    1.79903365421524    0.51485401665215
H           0.34000683033833    1.80375483466585   -1.51506198171493
H           1.83077761560357    1.16864087772088   -1.31104073260423
