    26
        -50.45784385  Gyration_radius:  2.46052499391 Dipole_moment: 8.291
 S          -0.28990579989128   -2.13611511457816   -0.26275470083534
O          -0.67542164029131   -2.11365729832052   -1.67949768349867
O           0.15299967281853   -3.38557588252344    0.25174621003355
O           0.63739792368150   -1.01984101907059   -0.01640441917185
O          -1.60366219256120   -1.75244558536347    0.54764393554186
H          -1.74483936199786   -0.78993656163586    0.45863314112542
H           1.59577482561639    0.23789040089496    0.19350116451121
O          -1.87369020127326    0.92638180797884    0.37868225799464
H          -2.69110824932600    1.20206974209770    0.79621822461714
O           2.13549340840410    1.05305369142015    0.33485692698912
H           3.00072898348890    0.74174055078820    0.60636874723298
O           0.48602332819332   -1.39916879634296    2.60128799149637
H           0.64545508940364   -1.43464799224270    1.63995363434403
H          -0.03635192517429   -2.18060260390546    2.79063377255859
O           1.45823095294515    1.84568501453572   -2.13689242672048
H           1.82733669033413    1.58180423628598   -1.26554069296291
H           1.36905609230728    2.79983750157571   -2.11164214963302
O          -0.02575134486603    1.22812496743365    2.14497414794339
H          -1.14421238522587    1.08958100084985    1.06257219841781
H           0.09034630673146    0.32401266241867    2.50354657559528
H           0.78682302454941    1.39808212709363    1.64426929800679
N          -0.82384874809405    0.37651242671270   -2.11287005239246
H          -1.28002466990688    0.71111162731723   -1.24882678333969
H          -0.69898427893772   -0.72019367127593   -1.99077956029625
H          -1.40140201198778    0.56426773464216   -2.92601279635748
H           0.10353652114261    0.85202901327563   -2.20366695108828
