    26
        -50.45886731  Gyration_radius:  2.37778089276 Dipole_moment: 7.210
 S           1.98015749726843    0.25466305815943   -0.18721798695339
O           2.42478098757972    0.12869737674104    1.18341272422373
O           2.92094028858040    0.69898634074360   -1.16223570517390
O           1.54955080651281   -1.21189466151941   -0.66713679893160
O           0.71608641374997    1.03180778144895   -0.24192144666226
H          -0.01224102913727    1.46573514227241    1.08459900475688
H           0.92404663418858   -1.58238035338216   -0.02102172124488
O          -0.50024313100099   -2.14911904000046    0.82348519981153
H          -0.41298228031267   -3.06161077267270    1.10124626639581
O          -0.62542039832192    1.72291259058207    1.83037837716158
H          -0.25416903037109    2.51852288371942    2.21422149409476
O          -2.14503896222726    1.62720880203762   -0.42834259035523
H          -1.83522260177878    1.65872024825978    0.49874075529324
H          -1.48516182982214    2.12589571582799   -0.92038489550508
O           0.53544889881656    0.30962478092264   -2.71980983210216
H           1.36945510544000   -0.11015960688766   -2.94801945312059
H           0.74497104691844    0.77153241303416   -1.87821427079975
O           0.42976691614832   -0.66570464179404    2.66841728475873
H          -0.21642558407754   -1.58329574707252    1.62096670192934
H           1.27882647655013   -0.40613088307414    2.22766677337733
H          -0.09854363760585    0.14960650421106    2.66690556487461
N          -1.47196999527403   -0.76349604141984   -1.35586889399191
H          -0.64604102414815   -0.50065423293924   -1.97349516989557
H          -1.82904064729990    0.15847718179095   -0.95504893922791
H          -2.19485967874366   -1.23303733954320   -1.89121892055616
H          -1.14667125161878   -1.35490747942440   -0.57010352215796
