    26
        -50.46234603  Gyration_radius:  2.37976258533 Dipole_moment: 7.197
 S           0.27457112136861   -0.44930350005859   -0.86850893619363
O          -0.94276440712187   -0.30154827030605   -1.61962876307049
O           0.68942845756071   -1.84561105786957   -0.69715369418823
O           1.36290889157654    0.38951392660023   -1.35870938625992
O           0.02340987335741    0.01272318977614    0.61598055073184
O          -3.19018494045320    0.36683125477448   -0.29807210963971
H          -3.22824022264325   -0.39082754013083    0.30053365069825
H          -2.53098727762505    0.10546469734098   -0.96716486525240
O           2.85875164671235    0.73610315654723    0.72566003764809
H           2.40636784061841    0.66476267583602   -0.15600111494411
H           2.42017613805213    1.46172155913258    1.17671094154814
O          -1.90227622583985   -1.96129093718884    0.75789139410619
H          -1.68595746608017   -2.43749233392898   -0.04720177084490
H          -1.21293588488157   -1.29010124397797    0.84502428887403
O          -0.28468807973101    2.43048294983403   -1.91355625239032
H          -0.92159382214599    1.99735287490885   -2.48870886580460
H           0.43819662929334    1.78305374847475   -1.81318606748680
O          -1.33840370360996    2.08348979912319    0.50416481456937
H          -2.19685722840549    1.63540078334007    0.29951621664279
H          -0.52883859666091    0.92334234598140    0.62902341720799
H          -1.01234457364668    2.44009398104015   -0.35639310537730
N           2.11973165384909   -1.69202846857843    1.37969077272730
H           1.50127089744185   -1.72789911876801    2.18512069279852
H           2.86672598141051   -2.37509956436571    1.45799121961447
H           1.51363581604822   -1.85937272446947    0.46254829450780
H           2.50089747155595   -0.69976217306755    1.24442863977476
