    26
        -50.45730923  Gyration_radius:  2.4996573235 Dipole_moment: 4.632
 S           1.66351171736267   -1.39053368452298   -0.20285162120089
O           1.54531959427574   -1.02253930948440    1.20658278263438
O           2.76525790316763   -2.22280124660927   -0.53593830043054
O           0.29966710452841   -2.18474167287099   -0.50335763924845
O           1.53952845108153   -0.18704613744905   -1.05223204305723
H           1.71857871327105    1.24088181696221   -0.24907791544432
H          -0.17613919695051   -2.15328257741789    0.34644314919017
O          -1.26915124098372   -1.91141097762712    1.69975132862556
H          -0.81674281869148   -2.42528136147978    2.37222406709031
O           1.68583371472561    2.12768539686836    0.18615756060735
H           2.59769730591039    2.40520986272732    0.27901088824069
O          -2.43275025608192   -1.69403448206848   -0.99729072898354
H          -2.51718966469876   -1.91059006250339   -0.06145802604889
H          -1.68158296050268   -2.21243558288772   -1.31084023623913
O          -0.28694177450495    3.10779100173671   -1.43906769681884
H           0.12743129793368    3.39863851883938   -2.25230563177543
H           0.43990546107197    2.91294372816510   -0.81359401950437
O          -0.25205772382916    0.68670030068294    1.79243521621013
H           0.16376277333759    1.55101344410595    1.86246802634927
H          -1.12230573902918   -0.98282036091086    1.93674370776019
H           0.51503747717907    0.05936015043454    1.62137339339494
N          -0.93544360259254    0.56269760881869   -0.79665535811570
H           0.02373069198662    0.19134831378115   -1.06422832481208
H          -1.04633511851050    1.49211532685657   -1.23420463873403
H          -1.66989414086717   -0.13183557639785   -1.03250906142735
H          -0.87872794861193    0.69296759236152    0.24242111167073
