    26
        -50.45500436  Gyration_radius:  2.41848421938 Dipole_moment: 8.132
 S           1.19126631709816   -1.67944152718882    0.35835747605167
O           0.36180149051181   -2.70513182612451   -0.23023364546110
O           2.45788320291637   -2.06836632005073    0.89177593578089
O           1.56241071546764   -0.66975911760757   -0.83782069345517
O           0.41682654825356   -0.83905904266005    1.30008556864174
H          -0.63726584733922    0.31522998295402    1.37872458773091
H           0.76275842082706   -0.44800662219728   -1.33993816193856
O          -1.14052083277794    1.17981542278762    1.43100210748364
H          -1.33330114794415    1.30256004338967    2.36158053322023
O          -0.34812047715552    0.72584938527175   -2.11653747051369
H          -0.49299335811521    0.57556664624064   -3.05066190332968
O          -2.19528862814013   -2.24259903617443   -0.11420152875191
H          -2.56843183037730   -3.02216133880065   -0.52793276745200
H          -1.21933293570482   -2.40401427447506   -0.08104999276381
O           2.51081614604485    0.66033451855574    1.36843475439754
H           1.76020958006960    0.04577130367882    1.55720383194889
H           3.16871099488994    0.05451245025972    1.00936170056615
O          -2.51999087903578    0.28972534026733   -0.81642178438524
H          -2.31907096169357    0.71516942928116    0.02953463926516
H          -1.23391011273807    0.56193367130052   -1.65761058462057
H          -2.50145169519597   -0.67441057224753   -0.61093513020860
N           0.87166197359741    2.09504582924757   -0.07653055952398
H           1.67223845094107    1.53900381714917    0.38808784900222
H           0.04332860566296    1.95883630601378    0.55555522244780
H           1.10927106377589    3.07488738827926   -0.18763027386221
H           0.62049516616214    1.65870813284965   -0.98219975027428
