    26
        -50.46704902  Gyration_radius:  2.49820096946 Dipole_moment: 2.983
 S          -0.55892970093922   -0.65956129271837   -1.66081202048698
O           0.82706267485012   -0.72298764245825   -2.09754995240680
O          -1.00745894844058   -1.85941847670323   -1.00105410646674
O          -0.75441183586661    0.52460567851980   -0.78953873792201
O          -1.46376672679671   -0.44511824413444   -2.91328858484641
H          -1.21004889233291    0.44113061451834   -3.23435217845466
H          -1.36258854395926   -0.07841601581253    0.63804531555501
O          -1.64302740878107   -0.46043106205502    1.50097899077687
H          -2.37782224098916   -1.03900767127707    1.28777711903423
O           1.16945587343847    1.64854049921359    0.79907846657116
H           0.43207648709558    1.44417571157617    0.19653383728285
O           0.40942213997277   -2.26430666849350    1.20668859641281
H          -0.20858352693135   -1.68200849519787    1.68022318140883
H          -0.05343824828370   -2.40371558057295    0.35419704998248
O          -0.74221083675980    2.10511947168389   -2.91145846571549
H          -0.64406079241511    1.74464230127938   -2.00991192063651
H          -1.41385047505843    2.78919357168376   -2.86491251515975
O          -0.18037178260278    1.19290543872832    3.12510588030159
H           0.77803998193963    1.64548034119416    1.69332025638476
H          -0.86122038322731    0.67766944073253    2.66213246002304
H           0.09323790850379    0.67260331414091    3.88172682222404
N           2.19465217829104   -0.66007559714840    0.10368620072172
H           1.64227990067501   -1.36879506784832    0.66434724432394
H           3.18877839700691   -0.85705005945558    0.09519422136023
H           1.77625277066434   -0.69885660431382   -0.87636841904172
H           1.97053204097278    0.31368207501503    0.47021126856942
