    26
        -50.44596030  Gyration_radius:  2.52162604692 Dipole_moment: 3.877
 S           1.45528451201479    0.89501009873744   -1.79372364185249
O           0.45248011380737    1.89882923414610   -1.51567404294111
O           2.20367838744834    1.04433906614630   -2.98361413431130
O           2.43073945703029    0.80487219720676   -0.59629995349708
O           0.73912259005446   -0.48875506391015   -1.75390781255997
H          -0.23391667724016   -0.30788477861621   -1.52327918407217
H           1.95459237839056    0.43831693855845    0.20412772051306
O           1.27257051592050   -0.32297620625280    1.41763798125401
H           1.91067714987809   -0.44943618767040    2.12145990304252
O          -1.62866803490010    0.21274157147180   -1.14065756479107
H          -1.48871381211787    1.08459388268342   -1.52764054331357
O          -2.19291374416018   -2.04828302257041    0.64822092778117
H          -2.42682756067853   -1.68998487557972   -0.21324636335598
H          -2.15649757705785   -1.28952270390377    1.24227046550772
O          -0.38127256938687    3.05570647612573    0.75042413989144
H          -0.00466137425353    2.69432636203569   -0.07631386656833
H          -0.54948992177030    3.98395504215001    0.58520596553152
O          -1.29605387515468    0.61860490628624    1.44478954437599
H          -1.16826179722733    1.58294235992237    1.40548371508207
H          -1.57020608440199    0.35650913334919   -0.15528652389286
H          -0.39777360215281    0.27027869189832    1.58454322751647
N           0.61611694715754   -2.57767834539337    0.35927583059005
H           1.00296744851075   -3.47123379757052    0.63211092579395
H           0.80110048227056   -2.42813155776695   -0.62607385384246
H          -0.39869734704262   -2.61074479513604    0.48296489362729
H           1.05462400506072   -1.25639465636881    1.02720224448749
