    26
        -50.43972858  Gyration_radius:  2.68661935197 Dipole_moment: 5.033
 S           1.26688049324558   -2.33155845067383    1.11226403325657
O           2.21005396777408   -1.24765976325212    1.22565424491602
O           1.43231780649828   -3.43910711442008    1.97640765718741
O          -0.16594938879300   -1.70828538976836    1.28635053288706
O           1.22023548037077   -2.82564646807130   -0.35147121722056
H           1.05078902364915   -2.03095892145877   -0.93668989634362
H          -0.05960469828188   -0.77253092366538    1.62373654622369
O           0.62085063596596   -0.77627236106926   -1.80391459004978
H           0.66682523313688   -0.96274725887197   -2.74293426058056
O           0.32317414268577    0.71768019025704    2.05489139428110
H           0.94886816294147    0.57836437360785    2.76945995029179
O          -2.44059772202285    2.08535771545533   -1.03773934007158
H          -1.65624547250499    2.46918724395000   -0.59573425002354
H          -3.03304809888668    2.81738605057976   -1.21125822440065
O          -0.26715182061858    3.00572139018272    0.31861411379796
H           0.55729712871325    2.65371366631909   -0.03904204913944
H          -0.39505070289832    2.56337170472312    1.16504722590346
O           1.81291272844585    1.01871115725154   -0.13125135786572
H           1.37742579991464    0.56776563685234   -0.87544725926447
H           0.87465575061662    0.90194244544234    1.25121601088784
H           2.34446347436360    0.31515552039463    0.28075913827521
N          -1.83617516306026   -0.73063210035975   -1.06212647333796
H          -1.79058604118377   -1.08353205626770   -0.11283482026138
H          -2.51053269519673   -1.28169281051096   -1.57631799939972
H          -2.16375754927701    0.23377808110479   -1.03659097381720
H          -0.38805047556469   -0.73751155762059   -1.55104813611590
