    26
        -50.46261504  Gyration_radius:  2.49076603132 Dipole_moment: 6.674
 S          -0.14670304866569    1.63321849075204    1.43328100890681
O          -0.09155107671033    0.32488986728646    2.08609253291298
O           1.00909063530687    2.44581377543232    1.61933990539482
O          -0.45307629489684    1.43700420686767   -0.00224281238689
O          -1.41092859650898    2.36876986865535    2.01784510686055
H          -2.12938458852491    1.75512864907404    1.81079428743806
H           1.09798604767854    1.29172015929530   -0.48935250262962
O           0.21530763247811   -2.80068751500238   -0.10622828407599
H           0.74059884650421   -3.35551055548564   -0.68504135581007
O           2.00922282208144    1.05071565958772   -0.77683612410576
H           2.57092977498082    1.69619422382421   -0.34064435193209
O          -2.56017626663832   -0.08762598054152    1.41047753367791
H          -3.04640377959776   -0.56917062803348    2.08273968527343
H          -1.61687179729988   -0.11910688291842    1.68799071200287
O           0.81059165098300    0.01935140988306   -3.02940554644987
H           0.65456608247529    0.79863112454450   -3.56594840757146
H           1.40766090808351    0.30641884435694   -2.31440811370881
O           1.86458721953904   -1.10465739117455    0.98721723845756
H           0.86948120460775   -2.24265996820745    0.40305192627989
H           2.12416131843513   -0.45575945333567    0.31243236617757
H           1.24020909358979   -0.62448578808362    1.56676927988819
N          -1.05504804782189   -0.76864243289390   -1.23233492434056
H          -2.04337166836951   -0.89645922388055   -1.41885141154583
H          -0.49677001344075   -0.57207534902555   -2.09085472005417
H          -0.92121917987069    0.08843815655846   -0.61346179117082
H          -0.64288886851114   -1.61945326750494   -0.75242124744286
