    26
        -50.45613061  Gyration_radius:  2.54683418649 Dipole_moment: 4.255
 S          -0.56265726072688    0.28391554050628   -2.07284077468866
O           0.89012657217072    0.28471581638313   -2.23852126219785
O          -1.19534609297285   -0.91358406563682   -2.53920535082987
O          -0.87799125141524    0.52771176673496   -0.64103801129693
O          -1.13407699585949    1.50751525049404   -2.85926247407245
H          -0.72014117183958    2.27729621929754   -2.42683676328893
H          -0.89405490614436   -1.04845738889573   -0.18945238276637
O          -0.75176947758242   -2.01317852284105   -0.03552694190053
H          -1.15301190097802   -2.41194656637411   -0.81499062270716
O           2.19131591751830   -0.21125389189598    1.92157847325073
H           2.77815445546434   -0.44740223626587    2.64062032302303
O          -1.92876027357878    1.07554023367731    1.75937512624288
H          -1.57496491646453    0.95612747796266    0.85903788452947
H          -2.85798117873469    0.84360614436580    1.71537148044679
O          -0.05966069800238    3.04361006238918   -0.94946150457899
H          -0.17741114967918    2.14220958534059   -0.60145981585648
H          -0.55052776664196    3.62600193487925   -0.36491640850424
O          -0.25955047289791   -0.92025598909721    2.58622385164843
H           1.26947387800252   -0.39887616816359    2.24089855332983
H          -0.83551713930308   -0.13842149241564    2.47320906928552
H          -0.52351248220445   -1.53277386936233    1.88903697642284
N           1.81430784893620   -1.32433867612605   -0.46724193228717
H           0.92349023476025   -1.83405371029618   -0.26345041645927
H           1.54103084709117   -0.59849190005573   -1.22345953785195
H           2.10916196570331   -0.83232450611008    0.41472027576932
H           2.53987341678828   -1.94289105637775   -0.81240778744237
