    26
        -50.45449036  Gyration_radius:  2.55496200913 Dipole_moment: 8.489
 S           0.12425630810769   -2.69886331537789   -0.50112069220108
O           1.27130447359965   -2.51523534283854   -1.35960831307964
O          -0.37654394449157   -4.03069485006730   -0.37097181674138
O           0.61593891660508   -2.30580192096151    0.99667813112332
O          -0.90971401210690   -1.69013873135665   -0.79095107186919
H          -0.57035933675996   -0.49280328925511   -1.75483656200028
H           0.56024532463172   -3.17432718777922    1.37823312956456
O          -0.39807247005061    0.33705162543903   -2.28849160205161
H          -0.49695530935275    0.08002750879854   -3.20553615369012
O           1.11176270475157    0.46807341361642    1.67306833711131
H           1.54762400596945   -0.17149439277996    2.23775967164146
O          -1.48501317493169   -0.18734973668670    1.24223585511531
H          -1.37319054603364   -0.88783772870124    0.55310705283456
H          -0.57827971534285   -0.06081917807742    1.59288689521807
O           0.47620287950692    3.04296687207146    1.13356709437190
H           0.86583531006792    2.17881735558090    1.37406264009933
H           0.33175678361485    3.51218547032009    1.95635184727171
O           1.90160464286167   -0.07214860291874   -0.73901765067239
H           1.79212615934060   -1.03323249540719   -0.93382570656322
H           1.33668658067132    0.36409090485670   -1.39005661196026
H           1.43262300125307    0.24509527892263    0.74898545867292
N          -1.45320043733334    1.84858438169898   -0.32686113012505
H          -1.07753952133140    1.43291898568971   -1.20439038347293
H          -0.73828336877632    2.46723199314422    0.11479499882472
H          -2.32075779677038    2.34246433572370   -0.50021634300754
H          -1.59005746769266    1.00123868634605    0.36415290558263
