    26
        -50.47014111  Gyration_radius:  2.4082833808 Dipole_moment: 4.177
 S          -0.98860646365122   -1.55050790073834    0.30991566310035
O           0.43300279973423   -1.86978051753929    0.08473489686857
O          -1.44829310752331   -1.88774925896861    1.62020164071872
O          -1.18132770095312   -0.10448537943952    0.03607262977500
O          -1.80890719376128   -2.32049644536064   -0.75663996413390
H          -1.22979746396921   -2.35812502064430   -1.56354700522736
H          -0.99691954647096    0.29490850330863    1.73007669208084
O          -0.60184793601606    0.53690710765967    2.59058152392858
H          -0.89057530408339   -0.17353390632377    3.17085188038026
O           1.59973513255709    1.95613539507949   -0.56455940497848
H           0.81863537121512    2.43991062996935   -0.21944214433011
O          -0.81110317223657    2.61234228167337    0.42781954555873
H          -0.87275455929260    2.67559410027842    1.38418078169650
H          -1.13180796168843    1.72287456404147    0.20957505978247
O           0.08336387098640   -2.19015965528096   -2.53862388588606
H           0.60569258235327   -2.29140859381633   -1.72684265163100
H           0.12367046657907   -1.24036930775314   -2.74290504006442
O          -0.06277726846201    0.53545848320966   -2.22619469320046
H           1.25381990550302    1.47586363990549   -1.33857895054285
H          -0.51273565808395    0.27621170321852   -1.38090736453810
H          -0.68366839806696    1.09555141108291   -2.69595376019348
N           1.69069512425965    0.07410819409278    1.25534727210352
H           1.28561549916544   -0.78436377483857    0.76578699765691
H           1.76754358305972    0.85850679399611    0.52287582827525
H           0.97257236087933    0.34913860934794    1.96353556386424
H           2.58677503795567   -0.13253165617860    1.68263888891845
