    26
        -50.46788065  Gyration_radius:  2.39878713516 Dipole_moment: 5.651
 S          -0.49869921725495    1.17681035795618    1.27560106923855
O           0.21745885978567   -0.01689605164331    1.78388255023725
O          -0.06176947128555    2.38441068539585    1.92242248898258
O          -0.35368946455937    1.24064573559200   -0.17462463910284
O          -2.00989576836105    0.94923960129598    1.58771070367320
H          -2.30105511119582    0.19047767817506    1.02754090898305
H           1.29619576667541    2.98767077244132   -0.61048730013613
O          -2.76398099036272   -1.02465044711162   -0.03898126779121
H          -3.70299951290249   -0.92995852460058   -0.20705596863754
O           1.85889862620960    2.79672397426378    0.14574289014446
H           1.23204949037855    2.78822039408343    0.90648716325583
O          -0.35395300344084   -2.29147070605500    0.56896296221878
H          -1.29972709818885   -2.20399545351758    0.39447897092651
H          -0.14407214171170   -1.52835020368766    1.15130531640074
O           1.09031738306743   -1.65050840890823   -1.51064225349567
H           1.50485581510524   -2.44064274734880   -1.85946757438665
H           0.52651097181113   -1.94954706406863   -0.73894957624509
O          -1.33441441459611   -0.25039154374853   -2.07724176992916
H          -0.56754904125820   -0.82232337170096   -2.21374764431791
H          -2.29610729303184   -0.76767367500692   -0.88680241276796
H          -0.99196414928440    0.45527133786925   -1.48477309702214
N           2.22797915447719    0.17102742580131    0.19175845471237
H           3.14810207027737   -0.11925767518703    0.50625742489674
H           1.47986518437466    0.01476540870021    0.94860293886413
H           2.18400548863714    1.22000103277417    0.02510420462142
H           1.91363786664088   -0.37959854174986   -0.63308454332011
