    26
        -50.45745696  Gyration_radius:  2.39267039907 Dipole_moment: 7.911
 S          -1.81693595624411   -0.54331690036988    0.26646460764087
O          -0.43370628199802   -0.59201672754061    0.76181167174665
O          -2.72028030746324    0.05636437727025    1.19881551792751
O          -1.70422280936654    0.44228591301210   -1.01506304152369
O          -2.20162153089896   -1.80916728485229   -0.31840960781467
H          -0.86791044502204   -2.63104443486330   -0.56168173095054
H          -1.31270676528939    1.30397344001606   -0.67977512033266
O          -0.03313229146793   -3.03907508600559   -0.92949007165651
H          -0.32545208419428   -3.77606252971320   -1.46955418665275
O           2.14630866937719    1.05353477823417   -0.56029827996015
H           3.06660817530506    1.26185528836396   -0.72638396779264
O          -0.64109176354835    1.49072046650884    2.36003927781888
H          -1.55588211961428    1.59059094510926    2.63653352773053
H          -0.64604292640730    0.64296827001389    1.86309164703410
O          -0.32727354262025    2.44034728077626   -0.12583586224908
H           0.57070678675032    2.14392008651913   -0.33331783575692
H          -0.43075779191960    2.30853862876455    0.84271723512690
O           1.90481571377228    0.06076594909926    1.83000632159407
H           1.52415908976290    0.71185748433300    2.42964838580727
H           1.14216270112745   -0.47577563414973    1.54488557005063
H           2.10497954576675    0.69508585611563    0.37606705394470
N           0.53192255576674   -0.66947760569372   -1.90227648019293
H           0.47989632474052   -1.66327898285086   -1.51892528680631
H           1.24579785902369   -0.09925594849491   -1.39167557820850
H           0.70537411649286   -0.66202050811417   -2.90276310611600
H          -0.40571489187444   -0.24231711147597   -1.67463066043587
