    26
        -50.46972961  Gyration_radius:  2.43072170404 Dipole_moment: 5.141
 S           1.02508784487379    1.18871538773087    0.05988634683948
O           0.87512460838986    1.90336282511082   -1.18532596115494
O           2.31878609742958    1.27163843018725    0.68532997733470
O          -0.07310717279722    1.49903434140021    0.99761156199399
O           0.84120863615935   -0.35628152071972   -0.25718708555683
O          -1.96565992734942    1.93403357217397   -0.78830855416490
H          -1.49802519991257    2.43779254135399   -1.46083264264708
H          -1.34723166856826    1.90538816825693   -0.02926651234693
O           2.43847219100964   -0.90240264935978    2.08877008481294
H           2.49757754942303   -0.02256593724039    1.63027892237492
H           2.72578108786588   -1.53721646938321    1.42938998154810
O          -1.46643511014811   -2.31269694078202    0.62608982047172
H          -1.67022133255602   -1.72776199304892   -0.12560643010816
H          -0.92189435282967   -3.01616924887611    0.26771964152468
O           0.12755691884418    0.53959207149427   -3.32978116599178
H           0.43747178190756    1.10961553231629   -2.59142695707290
H           0.87720367422579    0.43826336374274   -3.91665398200841
O          -1.46148029797914   -0.55148865645088   -1.47254454217513
H          -0.02041498985872   -0.45086508838421   -0.74667878066296
H          -1.84254650614527    0.33174822999566   -1.22639718828895
H          -1.08610746032226   -0.40548323799309   -2.35913309573445
N          -0.17926880919761   -0.67221556710824    2.36755068664233
H          -0.70673818519728   -1.35325895888276    1.77355838207234
H           0.85568837272000   -0.90459389531762    2.36395890468305
H          -0.22770262408577    0.28714560034677    1.88920923461579
H          -0.55312514589736   -0.63332990056533    3.30978934300527
