    26
        -50.46631279  Gyration_radius:  2.3973675089 Dipole_moment: 8.094
 S          -0.41309885041609    1.87205529289376    0.17457996894134
O           0.09931349205629    1.06584111183885    1.30964412971650
O           0.32808670062387    3.08393055619544    0.00271180597400
O          -0.37181572405889    1.03249033895541   -1.04232690184848
O          -1.89312283983179    2.17570787703810    0.47163514464479
H          -2.34351985313613    1.28272573849378    0.54821963318188
H           1.16104392550657    1.42850787462500   -1.67410864426087
O           2.10216980519022    1.68424998077501   -1.56837919299199
H           2.02179708668003    2.54569771931582   -1.13686888928555
O           0.77007365598991   -2.37550088773351   -0.11973900318628
H           0.88099575885810   -3.29592909780599   -0.36097846743226
O          -2.85492123677030   -0.22980612399523    0.60953127040014
H          -2.60959349440953   -0.68104532441833   -0.21006069663922
H          -2.32163683366893   -0.67178777009840    1.30511210334658
O          -0.87020123743482   -1.30061810377859    2.08735777246542
H          -0.50784157629085   -0.39862097973639    2.00049416012650
H          -0.33616599938678   -1.84902960782602    1.50041058278312
O          -1.26465598703666   -1.31112384117699   -1.46869534221721
H          -1.38609252407519   -1.38503105027082   -2.41642809467331
H           0.00410664444471   -2.03609116584892   -0.64204346417360
H          -0.94003289810342   -0.37728663593921   -1.30893362693144
N           2.18688197737151   -0.07331164968189    0.39102316058255
H           2.99503311673089   -0.13839453383694    1.00012049301581
H           1.34967251745908    0.41481979602517    0.88796810241956
H           2.36434203824905    0.54798717205928   -0.45173058258501
H           1.84918232549390   -1.01043671611212    0.11148458858295
