    26
        -50.45989266  Gyration_radius:  2.45077956632 Dipole_moment: 8.210
 S          -2.40781884229945   -0.20184292080294   -0.03312035500932
O          -1.79091695699217    0.72553778880523   -1.01496302872626
O          -3.45196950934082   -0.99173476856714   -0.58230526963402
O          -1.33595636738730   -0.98838758663686    0.59295529242519
O          -2.99126523308797    0.71644368943056    1.10166442131912
H          -2.25930238526782    1.26417350676651    1.38963617732611
H          -0.25813600495285   -1.86968757456371   -0.12822332346521
O           0.46031717136740   -2.31586270645986   -0.66137342076835
H           0.16041274870113   -3.21500103718025   -0.80075659087303
O           2.08400339102528    1.34496801668832   -0.49767482180924
H           2.95724819733642    1.72392920675226   -0.60006369021215
O           0.20053188223905   -0.01753395543676    2.54842318538061
H          -0.44179516925808   -0.51423462083620    2.00737583988269
H           0.08703952742664    0.90058998639984    2.25809178084917
O          -0.38702036853851    2.04378999946106    0.78914365505631
H          -0.91989448267781    1.68945794668285    0.05099974320011
H           0.51460309210790    2.08741210411736    0.44274966126646
O           2.21140796102565   -0.75388765626282    0.98763745679807
H           1.78964123956281   -1.47314584383540    0.49906319339625
H           2.19033927094345    0.55472066527640    0.12459448035090
H           1.57577814006702   -0.52870713527381    1.71327852359410
N           0.41897208708918   -0.03915426242688   -2.06968362480364
H          -0.54952037780047    0.28073928058682   -1.70117029838791
H           1.13582968306113    0.57372640167959   -1.61074789505317
H           0.54790128945910   -1.01597375884207   -1.72469130405959
H           0.45957002618410    0.01966522446815   -3.08083979804512
