    26
        -50.46409894  Gyration_radius:  2.4264074319 Dipole_moment: 7.366
 S           1.54516498130306    0.97201482564442   -0.92026778778816
O           1.35213772496427    0.22521562738576    0.33965903292931
O           2.56926150489300    0.41729287594725   -1.74266532382009
O           0.24353396922837    1.07469389223821   -1.60301994291801
O           1.95738987605915    2.43254017921759   -0.52692818698701
H           1.21877899249304    2.79199936974163   -0.02487086895019
H           0.43193079304109   -0.31115761035654   -2.71901293727224
O           0.34075792005199   -1.16803855514067    2.43341271924175
H           0.89686016780302   -0.61501111655917    1.85866924688081
O           0.70005886601268   -1.20707102029938   -2.98781749473334
H           1.65795454901929   -1.13604064423358   -3.05990423800132
O          -0.26514154455368    2.18382868497565    1.09773009861149
H          -0.94235507414757    1.91912998382675    1.72879299493469
H           0.30991771676359    1.40809084140919    0.98234421439873
O          -1.94818507724826    0.14852847219948    2.23872005801616
H          -1.10239520047905   -0.33345684751022    2.42456548356714
H          -2.57627006480275   -0.13284550777274    2.90455909206038
O           0.22543975916310   -2.04838065936499   -0.50300250526017
H           0.81981369137804   -1.34580677012236   -0.16894634488653
H           0.31779669119145   -2.02860942839410    2.00534911741219
H           0.39305599326244   -2.04564485249496   -1.47135340290229
N          -1.66821513875426   -0.23767186907693   -0.45219417863256
H          -2.49337162559487   -0.33008785570531   -1.03446387933022
H          -1.08334605107966   -1.13183562540231   -0.43985780553891
H          -0.98807721661775    0.46976501681401   -0.88071957427759
H          -1.91249617329110    0.02855859303991    0.52122242331804
