    26
        -50.47217987  Gyration_radius:  2.38259707271 Dipole_moment: 4.487
 S           0.67196031432777    0.53866514284882   -1.16333183386233
O           2.10247832100412    0.01243915627436   -1.36732804910597
O          -0.26489065134841   -0.53515501034744   -1.56463520160728
O           0.48608900782612    0.81425954099891    0.26867652084738
O           0.49843001480395    1.72351069942082   -1.96144145256542
O          -1.35295662836304    2.91162523855695   -0.57311296084584
H          -0.90938229159958    2.99619397651922    0.27508651780062
H          -0.64243982171829    2.62232133725200   -1.19758083212257
O          -1.45823226786542   -0.42347686327816    1.63639592034861
H          -0.67153771370027    0.09305034226211    1.36683026611279
H          -1.20693200883379   -1.34052617548934    1.45487444832009
O          -0.31460294417520   -2.48352352079771    0.15392308825612
H          -0.44953230587823   -3.31183600993723   -0.30898183924177
H          -0.29961806258914   -1.77530652593328   -0.54099228524545
O           2.42129469815610    0.25933666942644    2.00139237509188
H           1.69052486014174    0.56552642693040    1.42398891758590
H           3.15754350297452    0.85144867826878    1.84087000226732
O           2.34552978583347   -1.85616176007513    0.35987667887949
H           2.24625074894068   -0.77411205244682   -0.74160114157410
H           2.48997268461862   -1.26579896607866    1.12925152955353
H           1.44337003435750   -2.21197407022580    0.45766459085506
N          -2.44251667522573    0.51498597315220   -0.60073394443081
H          -1.67985802920339    0.05108536215692   -1.17208026757180
H          -3.37046663890312    0.35249596260844   -0.97555110380696
H          -2.30429942526875    0.12382843811410    0.37956284563841
H          -2.18617854830673    1.54709802982656   -0.58102278958431
