    26
        -50.45699495  Gyration_radius:  2.42446377748 Dipole_moment: 8.039
 S           1.58665585012429    1.29049778257767   -0.90946024932863
O           0.20754514478775    1.26827598901223   -1.44093601751101
O           2.21031746355537    2.56525343010102   -0.96440503555427
O           1.54775186832401    0.70087602934755    0.44609903773843
O           2.38861793050898    0.27424413624123   -1.79396204524054
H           1.80778119770026   -0.51270321544003   -1.83328808162404
H           0.32919098555314    1.26872009856202    1.22537260151676
O           0.88059982096139   -1.95647162419062   -1.69562848840773
H           1.44761503144709   -2.59494905677933   -2.13117673099191
O          -0.47289558892650    1.52475396305717    1.77111936968663
H          -0.15786750238964    2.18812912888672    2.38676578086354
O          -2.36532237213371    1.82760470647627   -0.27725274854015
H          -1.73560621444469    2.12110962095585   -0.94744958072542
H          -1.85966640682018    1.86883791365126    0.55092677360874
O          -1.09453373724059   -1.06459821103755    2.01440959957191
H          -0.85443819030277   -0.11270448943456    2.08522934505510
H          -1.83816473914454   -1.20648751645827    2.60150768046346
O           1.36786969486985   -1.87990801077719    0.87126394912703
H           0.61576166022231   -1.89697892119092    1.47469734689251
H           1.05695695005448   -2.05495505114516   -0.72090475639668
H           1.60470351419206   -0.92690233236388    0.79419953432357
N          -1.35265244212150   -0.58370804400665   -0.69983276574836
H          -1.43217498791367   -1.32752797476879   -1.38520277004173
H          -2.16725006031170    0.05782365010359   -0.65070256542155
H          -1.16195245518032   -0.95413590670096    0.24633575635950
H          -0.55884240536406    0.11590389531950   -1.01772493967581
