    26
        -50.46282428  Gyration_radius:  2.47228118848 Dipole_moment: 6.205
 S          -1.02104677249430   -1.62988135808552   -0.01438944016886
O          -1.41652326106726   -0.21477651167113   -0.09570661494446
O          -1.74712879834693   -2.48646286552466   -0.89060572507070
O           0.44514083170881   -1.72062166015399   -0.17262033728455
O          -1.31137460827239   -2.05278610925689    1.47297939509808
H          -0.89859926989106   -1.35704201564948    2.01885496756057
H           0.31667858119833   -1.41462527332054   -1.87798830484285
O           0.07737348302490   -0.17747151776129    2.88066940163666
H           0.34155086867066   -0.57326540863028    3.71343469057071
O          -0.09618361166872   -1.12121475670726   -2.70836925964612
H          -0.96976147310311   -1.52514862311382   -2.66961639636940
O          -1.28139290735756    2.02911386870672    1.60909535681288
H          -1.75424088038551    1.38255842409853    1.06719007248415
H          -0.90107223582689    1.50485392941002    2.32314932632143
O           0.51150697754628    1.46773985912771   -3.06806482539021
H          -0.20082366955371    1.84083335451133   -3.58964292752535
H           0.34682371628290    0.49735766244622   -3.04437823098937
O           2.06814395399173   -0.21068676919797    1.05530786243359
H           2.92699043208346   -0.63442149060234    1.08668622111453
H           0.87879130090102   -0.12588698010538    2.31798952047994
H           1.46544134081867   -0.85030134731871    0.56051682822333
N           0.47502935194934    1.50744682137728   -0.40314120508073
H          -0.28226581821006    0.74103180397991   -0.33719025002124
H           1.32861396017821    1.12582466802080    0.02283080396920
H           0.59674038466451    1.72029721338124   -1.41919176458461
H           0.10158812330534    2.27753511200275    0.16220083516525
