    26
        -50.44592107  Gyration_radius:  2.58173301072 Dipole_moment: 6.948
 S          -2.56159256748563   -0.36547680536186    0.47813628510429
O          -1.76095716694870   -1.26340671470325    1.28232206275023
O          -3.86966557114134   -0.09068536056004    0.93956741484975
O          -1.72989237035083    0.94671213014503    0.29863302199457
O          -2.62925153775907   -0.88802100108329   -0.96887728603017
H          -1.70178654759903   -1.01759739611411   -1.34400730343704
H          -1.19945487457841    1.04820800370200    1.15729666304535
O          -0.28715996215339   -1.10090422056826   -2.00942441616942
H          -0.39619490030814   -1.35328623753991   -2.92770612806151
O           1.96484675415932   -0.16583679076660    1.61273765198226
H           2.52028007619667   -0.57426231037733    2.27840188883314
O          -0.43213908180725    0.76771350209833    2.47019710584321
H          -0.85829826698936   -0.09547899595580    2.57361169670706
H           0.49674613687104    0.57775739675539    2.21667014608893
O           2.75088304857103    1.53582755755815   -0.41150947844080
H           3.62385573763775    1.22741318630891   -0.65817855523996
H           2.48145113164853    1.01288061929490    0.36399619353368
O           0.63857899703243   -2.05439130657564    0.41043806613010
H          -0.24739750207912   -1.92944530253167    0.80441298838525
H           0.51415162004173   -1.86680579263834   -0.53141656468864
H           1.51717293493563   -0.91517982792485    1.12260938956392
N           0.26148686388791    1.40673265177777   -1.86363655897529
H           0.20248172884358    2.00940908935978   -2.67392384307849
H           1.17091112134370    1.55175448024014   -1.42379080049949
H          -0.44927926837176    1.69431603413948   -1.19849920712919
H          -0.01977652357200   -0.09794659870264   -1.99806042306144
