    26
        -50.45660592  Gyration_radius:  2.60064503145 Dipole_moment: 7.128
 S          -2.04394255732613   -0.52539877556194    1.75257925239263
O          -0.95742632426860    0.39951789367811    2.08402700034212
O          -2.76632367970042   -1.02365417738808    2.87665344172426
O          -3.09657203543727    0.37236332949195    0.91248274867860
O          -1.58944205476164   -1.50952856807536    0.78038062485413
H          -1.65250167167577   -0.74685592425673   -0.55397668629248
H          -3.66380353233949    0.67578603470588    1.61253479225524
O          -1.50676076413876   -0.32045150333108   -1.45109390159293
H          -2.38045208796845   -0.22742915521671   -1.83216477227018
O           2.16090688190538    1.58611720833421    0.09755573035261
H           2.51113923960832    2.39113556783137    0.47929113981472
O           1.32293546909227   -0.70652847742542    1.41657263542488
H           0.46130835909650   -0.38509798856918    1.77433126913536
H           1.81483966410394    0.09700180388754    1.17407423620275
O           2.64357777789529    0.14330722220878   -2.11323375834718
H           2.63494575194776    0.70854496653512   -1.31106825485458
H           2.31134039890854    0.68908805839326   -2.82819689882367
O          -0.41744661640986    1.80621656708695   -0.07364905295989
H          -0.67486356730368    1.41387289945999    0.79119928553051
H           1.17182998918097    1.72952276558056    0.00017369524857
H          -0.81929224977496    1.21335153311690   -0.73060971649406
N           0.90822171920229   -1.57725187815527   -0.99287899139262
H           1.64423112952059   -1.05876621154705   -1.52792380411368
H          -0.02389570646640   -1.25753387326935   -1.29966505454082
H           0.98819223322490   -2.58247427916474   -1.09585595535131
H           1.01925424387337   -1.30485505836473    0.05846101507802
