    26
        -50.47087138  Gyration_radius:  2.47197519605 Dipole_moment: 5.617
 S          -1.14601249452638    0.58210220503452    1.03858542838487
O          -1.39885544962185    0.59415376775604   -0.40874617241351
O          -0.95860900141438   -0.74986332365209    1.55833830769571
O          -0.01793725992125    1.47335631969784    1.33163842617316
O          -2.41703058178212    1.17011623328919    1.73276013526340
H          -2.48278944265219    2.08192500985887    1.39275231290714
H           1.26096252585105    0.39892023572554    1.82917847302425
O           0.67234143649746   -2.78928779026533   -1.64982505773247
H           0.53603102676802   -2.86857426748316   -2.59521392903105
O           1.66460895935083   -0.49051899962797    1.89419651161938
H           0.88408969995972   -1.03843844054709    2.07011373354109
O          -1.68680699574967    3.32871625127298    0.35672378853411
H          -0.88295088681210    2.93413770560739    0.73582135921417
H          -1.80321151680629    2.91418604100489   -0.50376901937726
O           0.92366164790475    1.39155534565707   -1.29975776068813
H           1.12004736607324    1.97398813640776   -0.55809037143029
H           0.00308735598227    1.08395979261854   -1.11594526650321
O          -1.64355542436197   -2.04916010206935   -0.68355117212258
H          -0.22692136803672   -2.59153372687675   -1.26444062801030
H          -1.54768448651568   -2.05912788288993    0.28021834135797
H          -1.69919188948790   -1.09396547363233   -0.86740381190830
N           2.19217085277061   -0.84858026857241   -0.66469180285260
H           1.64364971332563   -1.66327815461911   -1.05699356267270
H           2.06320155303118   -0.80511711162595    0.39474060569703
H           3.17456618103839   -0.92820486486520   -0.90426545628069
H           1.77313848918781    0.04853338276026   -1.04237343244685
