    26
        -50.45954408  Gyration_radius:  2.460685693 Dipole_moment: 8.166
 S          -2.00813323716574   -0.25256936501892   -0.26855350635993
O          -1.55800178859508    1.05588591098758    0.24516316017934
O          -3.11668639210883   -0.16702376417358   -1.15361915592207
O          -0.84096272266549   -0.96037855298935   -0.83181345569992
O          -2.41767036284253   -1.08582158656476    0.99830094491004
H          -1.57500256861582   -1.23156360349880    1.46403105629105
H           0.54618043082145   -0.64957816386349   -1.51919114337753
O          -0.08672022978479   -1.73177091123214    2.24235524097391
H          -0.34473952432888   -2.33208582165702    2.94361986319473
O           1.43493989298426   -0.44742630752094   -1.92170812408538
H           1.24818470313710   -0.24831360615520   -2.84076261348006
O          -0.46122500240209    2.73756823980478   -1.37546594216560
H          -0.97738170749872    2.07209315107112   -0.84394666922899
H          -0.91711008971336    3.57086113286710   -1.24893880452033
O           0.50235497557224    0.93741560278577    1.80463027764929
H           0.50545337797896    0.01685855539519    2.10238519391933
H          -0.35873920630053    1.03646936336263    1.31905256224329
O           0.48443216048724   -3.03043107414652    0.03319860566931
H           1.32510180843347   -2.90019755578264   -0.41091387645120
H           0.21925795714798   -2.29535207251649    1.48516421315761
H          -0.13205806406521   -2.38599617043086   -0.38818130185068
N           1.74322991322756    1.67346578227473   -0.36543119475547
H           0.98764693211665    2.28290621912955   -0.77319832573507
H           2.63153327721795    2.15513767642151   -0.29427298412247
H           1.37492036815537    1.35417799263713    0.59078022099424
H           1.79119506882379    0.82566892878741   -0.99268426141544
