    26
        -50.46811951  Gyration_radius:  2.53580663155 Dipole_moment: 5.658
 S           0.47168985927047    0.75077783474599   -0.15349714862231
O           0.80440771697359    1.46120434096873   -1.46718990900495
O           1.67219411923604    0.71253154705273    0.65726711862986
O          -0.60837214224666    1.46738541554620    0.52577988762508
O           0.02880446620062   -0.62057028153714   -0.48471513101121
O          -0.61589919203554   -1.36885254969900   -2.96736112272597
H           0.22839028086057   -1.52555043498424   -3.39367880151340
H          -0.41692574802817   -1.19959835936173   -2.02418119842866
O           2.91874465736345   -1.46406463810353    1.41080238268602
H           2.56533616292257   -0.63201279474113    1.01227195789936
H           3.69324907443127   -1.20822322063147    1.91375032260617
O          -0.05675994573616    0.63200876606808    2.93036690437329
H           0.82596259578130    1.00096566693953    3.02275725964877
H          -0.39214931960393    1.03396537754107    2.09223881260419
O          -2.88501407782926    1.44147037494226   -0.79625740038757
H          -2.08262268036977    1.41215678818959   -0.22936993174010
H          -3.29266234673480    2.29367421232435   -0.63217785037734
O          -1.25559325773622    1.24688589066359   -2.91016896197650
H          -1.18871102102568    0.29540569224726   -3.13478018525531
H          -1.98862586149424    1.31295077920347   -2.25854598884716
H          -0.02527570745943    1.43341498017360   -2.08217568666769
N           0.30563813342941   -1.73350943228276    1.81775483706468
H           1.33474040841455   -1.90357035404313    1.83808630188624
H           0.09451665078606   -0.88821079888104    2.42483838087488
H           0.10213641962364   -1.39882397312159    0.81782204687735
H          -0.23719924498883   -2.55181085920802    2.07036313378572
