    26
        -50.46372039  Gyration_radius:  2.55987597428 Dipole_moment: 7.073
 S           0.50820059584962    1.12055415243334   -1.07568160339883
O          -0.58606673576404    1.43995961529412   -0.13563551050653
O           1.29169664925448    2.27534024798270   -1.42142901191717
O           1.43744502746276    0.11022593709405   -0.29145065331739
O           0.00735973023797    0.35150413269397   -2.19895569329068
H          -0.64438157896501   -1.04120282035543   -2.09500942618841
H           1.87340394131418    0.66515531536013    0.41894430435670
O          -1.15379806228500   -1.89563832890700   -1.94868103760508
H          -1.42191651268096   -2.18792502316770   -2.82083775102611
O          -0.97733707181667   -2.14992148815156    2.03846896009436
H          -1.24728832302569   -2.99382306877617    2.40219093416860
O           2.51372187859735    1.68923094384511    1.43558978599445
H           3.34733556682285    1.98479247978730    1.06265044701380
H           1.89801849385681    2.46650261936103    1.36528657183312
O           0.81706066402445    3.59398141956544    0.79423761416917
H           1.05043311339766    3.36870211441852   -0.13087819755560
H          -0.03431246443860    3.15734716242029    0.91213433658725
O           0.70410774872259   -2.52624308320004    0.04674503084907
H           0.11772648317099   -2.56673533305438   -0.72381181530722
H           1.16131143507317   -1.67388372837506   -0.03496575721478
H          -0.23763184346998   -2.34148431414357    1.40466695059535
N          -2.11379753379716   -0.57593145486568    0.20599261777976
H          -1.77856661414602   -1.12842626382699    1.03330883869265
H          -3.08120068814266   -0.29308504538238    0.31608125524233
H          -1.47490814487931    0.30495765679381    0.08821072370906
H          -1.97661573445303   -1.15395384480303   -0.64717189394872
