    26
        -50.46088400  Gyration_radius:  2.48254485565 Dipole_moment: 6.422
 S          -1.36067664653374   -0.89448230402555   -0.10581699777615
O          -0.45544480630168   -0.52299906231232    0.99311722220307
O          -2.74171981742991   -0.74572381903076    0.19827807513292
O          -0.94237939771094   -0.19434806281861   -1.33402768797061
O          -1.07479549515352   -2.42207242113382   -0.37881710721633
H          -0.11084702252489   -2.50482949186506   -0.40870433238509
H          -1.91102196626471    1.25954929183708   -1.02921671743864
O          -2.37419404681284    1.94408706131754   -0.52026788567062
H          -3.07564523895477    1.45986588950367   -0.07312470120404
O           1.70280439029230    2.67512340104216   -0.32969256052027
H           1.44004535294433    3.47308982187334   -0.79169395874429
O           1.61123404078970   -1.77529375078378    0.04557080954043
H           1.89696823253602   -2.40581998000760    0.71500913646542
H           0.95381693018186   -1.21035794320480    0.51395059620744
O           0.21327376047805   -2.84871636828725    2.30688310079050
H          -0.13777859194264   -1.97215654921818    2.08650272125118
H          -0.54704727734535   -3.42692742341314    2.38337379490580
O          -0.31213182750468    2.16512965449345    1.21324881030058
H          -1.10295729185080    2.33248733562882    0.66129687213526
H          -0.31401655175343    1.20048820680214    1.33968288793367
H           0.98650449307390    2.51788757654473    0.35899122694785
N           1.55746974201454    0.38183397681011   -1.58817467660167
H           1.69989304302030    1.32914387137991   -1.10933141071951
H           1.88520223616769    0.39428041847519   -2.54796907680230
H           2.01084055428904   -0.37099905251443   -1.05154292878028
H           0.50260321223417    0.16175972285899   -1.54752523195819
