    26
        -50.45450818  Gyration_radius:  2.46053148561 Dipole_moment: 8.298
 S          -0.66260046670564    1.86321835674062    1.06145276466884
O          -1.07035978001202    2.14451836886664   -0.32134933846829
O          -1.17392618301908    2.75180510105135    2.04607697992126
O          -1.26560598795272    0.39413554742533    1.33846030368588
O           0.78685707487306    1.64181891764161    1.12869560323518
H           1.62533165696415    0.29957393686204    1.50335759980831
H          -1.94744065499485    0.27217784261318    0.64806274885064
O          -0.60252929165038   -1.98156744692292   -1.30266879061284
H          -0.40055122670507   -2.82716366229273   -1.70417242593871
O           2.18936631205767   -0.50927391063626    1.60211701673399
H           2.54513814921245   -0.46904584698649    2.49071801700755
O          -2.85280787724176   -0.54380573257862   -0.58477462428576
H          -2.17567243772297   -1.13971667275113   -0.94913466889674
H          -3.52706577090603   -1.09450397338130   -0.18298338433099
O           2.55303743216852    1.13073170325314   -0.77462423427125
H           2.94760445532611    0.38589820601586   -0.30732528171797
H           2.02203586117816    1.58656244620706   -0.08567005316586
O           0.00818384493676   -2.02040568810180    1.20457014617662
H          -0.33306411998806   -2.05632041271350   -0.33400965945793
H           0.91581774587714   -1.67399705279169    1.33148073149880
H          -0.55781292049949   -1.28241174132479    1.48829380573342
N           0.19834504977490    0.60578522136258   -1.88385738274796
H           1.20268443035080    0.74137965933136   -1.58888410530032
H          -0.39452118813721    1.27186672759045   -1.22920960793289
H           0.06340901781241    0.88445353836085   -2.84954914751775
H          -0.09385311499666   -0.37571344283891   -1.74507302267735
