    26
        -50.45166245  Gyration_radius:  2.45817475353 Dipole_moment: 7.167
 S          -1.65751106075689   -0.64622083215397   -1.32275679166041
O          -1.93510033311309   -0.18022506366275    0.02592878638233
O          -2.68193967720872   -0.43803862324725   -2.27442090684695
O          -0.31544006198493   -0.02049111660210   -1.76219115831098
O          -1.29892823552753   -2.14381083022114   -1.26007867559407
H          -0.59900475837881   -2.29396013428431   -0.55752082078779
H          -0.22218836967780    0.96657531166347   -1.42840439174089
O           0.43202563559881   -2.57230702885061    0.62277986950383
H           0.12570572492797   -3.35620722534025    1.08279810017727
O           1.74275915432699    1.24668875402210    0.99667144318944
H           2.52660621365909    1.66098181002505    1.35862571803914
O          -2.28668149509784    2.40339184450241    0.58446153065400
H          -2.38385608396699    1.45507509804034    0.37345898778415
H          -2.35075962168974    2.47823139421412    1.53851329134553
O          -0.00272726023791    2.27094924650948   -0.80902650715916
H           0.64604351193978    2.05705569208997   -0.10799382607062
H          -0.83914154814917    2.50426444975885   -0.35071182407686
O          -0.17083655626241   -0.46463310232766    2.00139900984527
H          -0.91694221954688   -0.29138171111091    1.39405300663594
H           0.26236057480911   -1.79858386432737    1.24174306991690
H           0.49624909120975    0.21443750908553    1.80215571019529
N           2.35901174366195   -0.68942744932351   -0.69483397335249
H           1.66093500009254   -0.50594625135157   -1.40989574992079
H           2.10229146117728   -1.57006636432731   -0.26116806396676
H           3.25382481221249   -0.81089875051890   -1.15160556723618
H           2.05324435798543    0.52454724774378    0.36801975306107
