    26
        -50.45694960  Gyration_radius:  2.48247602661 Dipole_moment: 7.912
 S          -1.63610858765326    0.48463588991920   -1.57241847836726
O          -0.36889779960135    0.47089975579642   -2.31967489192898
O          -2.81063118987458    0.61729062381141   -2.35842205309434
O          -1.66204100894181   -0.67646371175714   -0.65630917050061
O          -1.55040560102250    1.74851833313309   -0.62122181355338
H          -0.64471485190973    1.73773562663393   -0.25845217653104
H          -0.64540067186089   -1.63141333616782    0.00124798923613
O           0.06687267208134   -2.21000382039937    0.40954831462474
H          -0.34852724885907   -3.06038304915518    0.55905725295133
O           0.77525515273284    1.74823044220868    0.72880617863358
H           0.72891470411110    2.57623562651542    1.20966126547263
O          -2.57852450975925    0.24379765465151    1.63397663369764
H          -2.87495978998129    1.13376517352395    1.43214453877809
H          -2.38831768574261   -0.16193673538475    0.75929838378926
O           3.08076181409184    0.59939253433004   -0.02757318622137
H           2.31197053269993    1.16808523857463    0.19118985384493
H           3.39507947866507    0.24047539773470    0.80461500776414
O          -0.01544163335176   -0.13554747023830    2.28894273333858
H          -0.98978131281824    0.00561114431937    2.24766840346889
H           0.13245758271070   -0.96126490557878    1.80044311569031
H           0.49271412566065    1.02445605717521    1.37810315738859
N           1.52947016592168   -1.01361731874366   -1.53203867798929
H           1.11860191233392   -1.66527835716054   -0.83788691239508
H           1.93615522081534   -1.50815237950148   -2.31773075753515
H           0.70617130056081   -0.36280607315875   -1.88807885183485
H           2.23932722900410   -0.41226236104424   -1.05489585870633
