    26
        -50.45500891  Gyration_radius:  2.41384234823 Dipole_moment: 10.462
 S           1.18568783708516   -1.12026688156203    1.52842591802055
O           2.01940392588045   -0.77732971257814    0.37720403691837
O           1.81967482523640   -1.85913759580302    2.56241570698106
O           0.73545380909693    0.28451809243629    2.15630579161398
O          -0.08391527796727   -1.71472612228215    1.05257017041001
H           0.26723022759918   -2.34876434289986   -0.36175638182321
H           0.67979550313194    0.91667747459052    1.42402558073172
O           0.63541764973582   -2.45738555022043   -1.27918408426969
H           1.56835446746889   -2.24699789611434   -1.14844882297240
O          -2.10157853087252    0.98522810609945   -0.36938156235392
H          -3.01409499404737    1.21213058987093   -0.55331037582253
O           0.12294407217493    2.32718186312682    0.41484301307844
H          -0.08084187512242    3.01022175911217    1.05556918107571
H          -0.72695468916317    1.96494692601504    0.09536556660220
O           1.84446671369628    1.12293769390721   -1.37777396550894
H           1.52662729991808    1.85517625647701   -0.83493471064162
H           2.07579224776461    0.41110553774162   -0.72576224795451
O          -2.05164266825594   -0.29784340156860    1.86359417618510
H          -2.11960329754771    0.45908798138938    0.49287083509354
H          -1.63810400075600    0.16970343146656    2.59419123911189
H          -1.36769482773020   -0.97108900183294    1.59596374201141
N          -0.28554522333911   -0.17864055172830   -2.13501206147990
H          -1.05324477078725    0.14511683145519   -1.52286066231754
H          -0.55810977259806   -0.14431432594420   -3.11073804108254
H           0.58137358344434    0.43093701461538   -1.94365464881320
H           0.01910776594154   -1.17847415574863   -1.85052739280011
