    26
        -50.45869651  Gyration_radius:  2.39096380423 Dipole_moment: 8.408
 S          -1.70941756699625   -0.89303289216331    0.72412749365581
O          -1.16834086895822   -2.16011777152939    1.16096420842400
O          -2.81739167230382   -0.36191962328658    1.45656766986144
O          -0.50470846011353    0.16159385422165    0.92244085619108
O          -1.92436273812208   -0.85135017091129   -0.73739990930028
H          -0.65960039140913   -0.73104352425964   -1.55967234198811
H           0.21696834158474   -0.27298855199153    1.41386767572685
O           1.74773070847902   -0.90427929737599    1.90214612551753
H           1.56154629513529   -1.43068432528946    2.68136088994662
O           0.18253336115000   -0.56030157855616   -2.09742042695065
H          -0.02837588176735   -0.83287806518543   -2.99194513908756
O          -2.33385925137185    1.69087421945914   -0.34414703974672
H          -2.60354012532671    1.60597782872140    0.57824734387778
H          -2.35969352090442    0.75414424842005   -0.64097034441835
O           2.27691890160234    1.53408867085066    0.70368016411419
H           2.06479113147324    0.78436608015698    1.28481025411113
H           3.08370984248889    1.28661605821486    0.24717217012059
O           1.10900074970837   -2.39094645407350   -0.12729495835090
H           0.22035977720631   -2.49137913159765    0.28830687925049
H           0.96726745829365   -1.84019248027075   -0.91004392572799
H           1.67916310323483   -1.53269148424846    1.12666933404609
N           0.21117265474138    1.91417802142968   -1.02553210219681
H           0.37020337513175    2.73041366199028   -1.60702891154091
H           0.91725224142761    1.84842466785414   -0.25545542369548
H          -0.78011600439609    1.91999087512806   -0.61980170706525
H           0.28078853000394    1.02313715428868   -1.57364883477737
