    26
        -50.47071310  Gyration_radius:  2.41593693523 Dipole_moment: 4.164
 S          -1.19045155114158   -0.32794577423762   -1.60928995404786
O          -0.49401497186322    0.90953248589664   -1.92095928263658
O          -0.32186800986750   -1.46725410288779   -1.43698574180021
O          -2.10312356509163   -0.15924818640254   -0.47668063071598
O          -2.09883042792109   -0.64571711590381   -2.86648762301086
H          -2.48480676227301    0.20211985235614   -3.05811572645269
H          -1.75108717495017   -1.38145943511138    0.56834144816019
O          -1.30488277482076   -2.12835343616457    1.03117362367427
H          -0.98686685962424   -2.67102817560048    0.30084004437177
O           0.71742071619600    1.71360957648421    1.71530639420305
H           0.80440778847549    2.39301599846439    2.38473451215380
O           1.95726185446249    1.26740966391421   -0.84408682345753
H           1.69643575651901    1.58919452122447    0.02915250882261
H           1.13103798736703    1.19090450517921   -1.35878694199006
O           2.16234766800689   -1.34213660631090   -0.48411510751925
H           1.34834836914998   -1.54840902994699   -0.98673331036559
H           2.34183561163939   -0.39881508802129   -0.71125536049538
O          -1.34321931423425    2.24260704771041    0.22481730418057
H          -1.84691787900033    1.40510732691463    0.19275503883989
H          -0.10735002671980    1.94235966070251    1.19344346469167
H          -0.93434542895438    2.25260054005898   -0.65490020426887
N           0.96679356459054   -1.00659618772607    1.78539230799325
H           1.56354638227249   -1.19535080833093    0.89104918601153
H           1.40157470432785   -1.40254187670065    2.61110899052026
H           0.85743588769566    0.02132765929895    1.88077146305034
H           0.01931848576830   -1.45493297486339    1.59951044010282
