    26
        -50.44216299  Gyration_radius:  2.50322180681 Dipole_moment: 6.500
 S           0.02970168020771    1.65640733934666   -1.63492683288585
O           0.84260954500117    0.47228298325520   -1.57137346289873
O          -0.27302576742375    2.18192455287277   -2.91280468734719
O          -1.29487189778462    1.35586460579838   -0.83569291683698
O           0.64175015743965    2.75366799362363   -0.74172109653933
H           0.90503955178998    2.34609254975409    0.13246470586424
H          -1.67143221135153    0.47715833439792   -1.14048343267675
O          -1.28329444009957   -1.98168466109830    0.93954088493886
H          -1.47286876529260   -2.80731632177312    1.38605966089253
O           1.17955600886924    1.75264652684182    1.59637677475883
H           1.22413452368045    2.46911589580786    2.23266188389737
O          -2.34237354774682   -0.94726859300657   -1.28477167072459
H          -3.29667529492250   -0.88655253312561   -1.20573454512082
H          -2.01328636637431   -1.40910565438942   -0.47803983100302
O           2.90646564284775   -0.07894233920526    0.25715408809731
H           2.39439479896258    0.13239628097314   -0.53643903943536
H           2.57496364408466    0.52638215458497    0.92891221926821
O          -1.14923191775394    0.59894263243076    1.83982612357473
H          -1.46343944180342    1.00826550195651    1.02125695475365
H          -1.17039557741691   -0.36115619804310    1.66957578175179
H           0.33988824821935    1.25058457707642    1.79245490902135
N           0.95970898415711   -2.15258231227414   -0.32258462224153
H           1.22280714803838   -3.00481485090614   -0.80132866219713
H           0.80283467759578   -1.43550082034728   -1.02905657048286
H          -0.36104088025923   -2.08941444118613    0.49343048944930
H           1.76808148735629   -1.82739320338964    0.20524288413020
