    26
        -50.44596050  Gyration_radius:  2.52135485841 Dipole_moment: 3.881
 S          -2.36120955958483    0.70584163164474    0.25416494098694
O          -1.65872791189656    1.13919642420465    1.44149148721972
O          -3.64245784118468    1.25807773538003    0.02654481270047
O          -1.41629272455996    0.96864717643351   -0.95704893567507
O          -2.47515951696067   -0.83697284392461    0.26505526332528
H          -1.56912701953839   -1.24760782044572    0.15231575112122
H          -0.55441930356432    1.35090910185727   -0.57797429261572
O          -0.17844754401823   -1.91134836151019   -0.22298220084317
H          -0.28455500603243   -2.86045933070287   -0.30314247163418
O           0.64196308683046    1.87825896440460    0.23050547578656
H           0.09937835177342    2.18308246611474    0.96693252823562
O          -0.06523896067065   -0.15217299965505    3.16163292712141
H          -0.72035041001854    0.28279941037922    2.58048787292006
H          -0.24857010258976    0.15516305393829    4.04989873762643
O           2.63027464595724    0.56057510323563   -1.48269114458717
H           2.26516289436840    1.42698225358108   -1.27959059090419
H           2.72861319902286    0.11594321097169   -0.63270998668176
O           1.66409444535823   -0.38984366036396    1.10950681377984
H           1.29416805446860   -0.35362849812176    2.00941056041820
H           1.10673127348050   -1.04632222010518    0.65557165392169
H           1.08956481876763    1.05240563525647    0.56580505699789
N           0.34922078210246   -0.85209303781733   -2.51092305576573
H          -0.36798511485315   -0.14181101020644   -2.60378192890542
H           0.41161132626976   -1.36831954219787   -3.37820528477520
H           1.23987007647665   -0.37501666446323   -2.35139616594804
H           0.02188809059005   -1.54228616789691   -1.16887780382714
