    26
        -50.46696574  Gyration_radius:  2.45457763479 Dipole_moment: 4.673
 S           1.75669758622433   -0.38128932967518    1.16195906516318
O           0.49289398818589   -0.67787618206782    1.83191502903562
O           2.60507537220187   -1.51436106603437    0.98251736708498
O           1.47532816895373    0.34150427054580   -0.10234106169993
O           2.50532187371660    0.65882770822290    2.08168195687640
H           1.87327985164324    1.37705623864618    2.19427067254759
H           1.51508243487470   -1.08410924062757   -1.12209907372591
O          -0.52070408044721    0.91330450795453   -1.93885257141461
H           0.28316656932372    0.76705981244514   -1.41515310497714
O           1.34222298971721   -2.01247619781004   -1.35845389383432
H           1.82523417242519   -2.48937231185563   -0.67258730661387
O          -1.91963150051075    1.94382708855213    0.08347515895890
H          -1.53534611629143    1.77159895039534   -0.80556945728147
H          -1.17512043215609    2.29088512495581    0.60728622241154
O           0.59166370045617    2.45558217864965    1.09587202747674
H           1.00943675970464    3.23591581183847    0.72502146759915
H           0.90459605545455    1.69057106747159    0.55388866668419
O          -1.26356434173707   -1.85214455872628   -1.64359302180859
H          -0.86176073196102    0.03179359866070   -2.13530578114495
H          -0.28571841002116   -1.99312632108416   -1.54359018073477
H          -1.58560767627117   -2.57618533823498   -2.18136219253979
N          -1.83298151056741   -0.59326102215492    0.72238036922902
H          -1.99871917651219    0.44559763867146    0.50828720708481
H          -1.77292005352876   -1.12690922162140   -0.16342679414439
H          -0.87569696783924   -0.65353210204119    1.20393793074007
H          -2.55222850509384   -0.96888109517848    1.32984132902471
