    26
        -50.45787531  Gyration_radius:  2.38111690219 Dipole_moment: 7.854
 S          -1.13955565303370   -1.29208986095224    0.48530930551536
O          -0.35421450823220   -2.53533668551874    0.42533756631234
O          -2.34768530524802   -1.36412794572445    1.24498753225634
O          -0.25020729907897   -0.19841875597105    0.88797008837374
O          -1.55512889896358   -1.00043881561714   -1.01170189265156
H          -0.81823092204819   -0.52339271228773   -1.44979434825776
H           1.26520371747569   -0.32160129107449    1.46238597472710
O           0.47672554548399    0.34291839361752   -2.07686704229149
H           0.35743037599316    0.54032607631012   -3.00739974478519
O           2.22659413537405   -0.47829377710845    1.64681347503216
H           2.25678111468961   -0.99470361110568    2.45360056960008
O           0.67136851054692    2.28624279473254    1.49233575374826
H           0.14256878406322    1.47162675684724    1.48144788165131
H           1.58476161116469    1.99912401405463    1.56325606073347
O          -2.81877911091593    1.13392160352650    0.29683822451901
H          -2.63991818139020    0.29778790850235    0.76143250088521
H          -3.56538239112094    0.95332649329085   -0.27807785896541
O          -0.63113589602360    2.30383257955293   -0.89330124625564
H           0.11025166057412    1.16033932677098   -1.57735937197901
H          -1.45365920043842    1.93211480216486   -0.51327459244484
H          -0.10494575020815    2.54964257207903   -0.10883453082766
N           1.74984590015649   -1.66268530589260   -0.68656991502858
H           2.33200039227275   -2.31741347028648   -1.19717665363538
H           2.23867152163640   -1.24570136108569    0.13933978489994
H           1.41549642935021   -0.89097580590336   -1.29079242006099
H           0.85114341792139   -2.14602392292203   -0.24990511106469
