    26
        -50.45156903  Gyration_radius:  2.50376579807 Dipole_moment: 10.541
 S           0.49796261357589   -1.29898533361871   -2.03579974580119
O           1.07167180125730    0.04753688081908   -2.08932304328895
O           1.13946541479569   -2.26141929948704   -2.86187846376259
O           0.71612157392031   -1.75268905455352   -0.48428816379645
O          -0.96075891591086   -1.26287502180004   -2.12453448342817
H          -1.84270599817471   -0.24307884451560   -1.47054559530594
H           1.62186339291076   -1.38912156502251   -0.28097901670788
O          -2.44044452947619    0.34272710739861   -0.88721011586722
H          -3.28910525248637    0.36261178759859   -1.33095950959226
O           1.42983312529080    1.56381952666121    1.33625695074267
H           1.91001024004890    2.38240347775574    1.46831036864655
O           2.82975541557080   -0.33549471080360   -0.17707856439499
H           2.51020209156105   -0.02046943465473   -1.04469438068775
H           2.50921414434208    0.31457971675680    0.47109081485531
O          -0.41520901202196    0.51331809636891    2.93325240122128
H          -0.93928500384943    1.27189227008572    3.19613508768010
H           0.36811617331335    0.86981143438930    2.45312078413384
O          -0.12541823484857    1.88345120772366   -0.70330586351812
H           0.33288766339225    1.26959281694013   -1.33215170757825
H          -1.04661234746449    1.59013826513072   -0.70723730191342
H           0.81974142019485    1.72232890245713    0.55392033755557
N          -1.35378928160747   -1.12286921620767    1.04151716715836
H          -1.95900518398195   -0.55143674766681    0.39881873038128
H          -1.01638825848077   -0.52820657841366    1.84400108458762
H          -1.84725919919923   -1.94452695697442    1.37480977726192
H          -0.52086383268002   -1.42303872640431    0.45875244141863
