    26
        -50.45787532  Gyration_radius:  2.38111140005 Dipole_moment: 7.855
 S          -1.62747943028593    0.72884739414679   -0.15473567262551
O          -1.38738950200752    2.17581381499760   -0.27594212927021
O          -2.91690367570895    0.28196911390824   -0.57841722502704
O          -0.51466692524444    0.01733960744126   -0.79085169813594
O          -1.52256947888137    0.42709978877890    1.39338997607189
H          -0.57674819391922    0.29704622195126    1.61957515540259
H           0.65027468652462    0.64969166645227   -1.73156444003821
O           1.40323772559707    1.13790884262229   -2.15289225101112
H           1.03763508292630    1.55931888656940   -2.93217206999629
O           1.06087172471333    0.03117982168203    1.87902255673902
H           1.25575809242663   -0.11951289795744    2.80552485860178
O          -2.15293821712603   -2.12411706659729    0.41538546653850
H          -2.74756984003220   -2.18786275630416    1.16566721660342
H          -2.42543597450916   -1.32299059456174   -0.06513808271529
O           1.10815810493807   -1.98449376741840   -1.65483150115654
H           1.79620790139127   -1.38426650131061   -1.95165791256499
H           0.32865944317158   -1.42774448839201   -1.49439266538484
O           0.53389847352982   -2.29141589561422    0.98414497387212
H           0.90594023265555   -2.38650641925326    0.08677414327771
H           0.92479464456616   -0.90200077981178    1.47557574166656
H          -0.43389248839056   -2.28610159983031    0.83427964483605
N           1.09224242767635    2.24605027337590    0.24507899593283
H           1.48532829857074    3.11022622744476    0.60138720306952
H           1.23558042061985    1.45756332278152    0.90094993037529
H           0.00021386610650    2.32132307007590    0.06140916819442
H           1.48679260070996    1.97563469482746   -0.68556939323422
