    26
        -50.46364556  Gyration_radius:  2.47131510037 Dipole_moment: 4.522
 S           0.96514596640274   -0.28056623474490   -0.26348834220919
O           1.87642763922207    0.71841004970891   -0.99036091732506
O          -0.19051187060969    0.45473471723328    0.26170797624843
O           0.55969752386452   -1.33946335215075   -1.16348290265786
O           1.76739418336486   -0.78440903663329    0.86584272049805
O          -1.33833456638465    2.57493158967210   -0.86330319226627
H          -2.18806693052215    2.24931749325320   -1.16773102960839
H          -0.93069576081836    1.83303429826662   -0.37078035190817
O           0.00061977202426   -2.80265806313099    1.12360147999448
H           0.81244459625300   -2.26817114192014    1.11374268140612
H          -0.21587012604654   -2.89181374913679    0.18966282405139
O          -1.45996612446924   -0.83454747663915    2.18512326531088
H          -1.31120344473718   -0.31752357775483    1.36656003116354
H          -1.13549849964586   -1.73139065522336    1.94691833425487
O          -1.00886978646308   -0.40256547414290   -3.04352530111949
H          -0.88363880933426   -0.97127520034228   -3.80526614326243
H          -0.48586458736440   -0.80957992308865   -2.31472411284409
O           0.43395077445299    1.83653829476180   -2.74736256998654
H           1.35336303708289    1.18946990771446   -1.73643331057910
H          -0.12144342523415    1.08188943970868   -3.04066514056093
H          -0.15471225776075    2.36647813394284   -2.16982611822365
N           0.74536021942490    0.24498878627767    2.96604230077421
H           1.29126775227088   -0.14574388437993    2.10539540185005
H           0.67872018006887    1.25474611405703    2.88040901695918
H          -0.24513909867298   -0.20059409319586    2.83186116740274
H           1.18542362363348   -0.02423694211314    3.84008221263871
