    26
        -50.45156904  Gyration_radius:  2.50377869507 Dipole_moment: 10.540
 S          -1.89932433468942    1.51115452654547   -0.43485481976678
O          -1.27194385164212    1.77631133075892    0.86174348173700
O          -2.61206449042262    2.60568749839385   -0.99539850018992
O          -0.63841202472341    1.18511886706337   -1.41696088976969
O          -2.60550497823087    0.23116124250573   -0.43571081441382
H          -2.12573037486959   -1.02244610400362    0.23041620711880
H           0.04516883360242    1.84379702384856   -1.11247671241089
O           2.24234163074506    0.44026264720610    1.02668490437605
H           2.82022835054115    0.65433993535498    1.76038050834670
O          -1.71538137048503   -1.90622911881863    0.53258388443469
H          -2.45668068288309   -2.49581917910960    0.67540635707648
O           2.44635260799232   -1.63378637046377   -0.62097685434975
H           2.49845309303847   -0.81343481385903   -0.07733238470699
H           2.67284809102560   -2.35976429845720   -0.03709371962459
O           0.99330819363380    2.67413644205318   -0.11664676342077
H           0.22026370910580    2.66713766261697    0.48038908075742
H           1.60020655999583    2.00021938820253    0.23406729148127
O          -0.06040994067342   -0.21273235067775    2.00220845755426
H          -0.56095302525181   -0.97819349227324    1.68887847984495
H           1.36429873987504    0.17046648596340    1.43367640274580
H          -0.57917594498399    0.56967478860879    1.68437016374829
N          -0.06954505660407   -1.39956118785868   -1.48814818389684
H          -0.28671924489036   -0.36242588245718   -1.51436254203904
H           0.93999202775886   -1.53336850269158   -1.21542161187753
H          -0.69926233667212   -1.80304708111211   -0.74887778797497
H          -0.26235419029282   -1.80865946734088   -2.39654361478217
