    26
        -50.44868295  Gyration_radius:  2.4836116036 Dipole_moment: 9.441
 S           0.02733541886811    1.36040732382827   -1.85695823424674
O           0.19171575003601    1.37142432941595   -0.40122018383556
O           0.46835218069170    2.53634819187567   -2.52220057652392
O           1.00321129635739    0.12704099227501   -2.31819434399975
O          -1.29468393044996    0.86239988907859   -2.21615218669149
H          -1.96725520165939    0.12183853024619   -1.10519789054281
H           1.85756607926262    0.37325287766980   -1.89564472805308
O          -2.36035185486531   -0.53365977590409   -0.42847075506240
H          -3.16829344112856   -0.85806914009643   -0.83015907299899
O           1.67079469209627   -1.17632988543670    1.44887088626853
H           1.81989279806601   -1.74354967138718    2.20611067976412
O          -2.26786840093815    0.19388830598543    2.21659629584224
H          -2.33651298791292   -0.03421051490114    1.27129418580627
H          -2.76509732337479    1.00498813407731    2.33474577633803
O           2.76805787475241    0.76302988332326   -0.49678467953660
H           1.98575447635238    1.30273388986410   -0.28225856219643
H           2.79000204519776    0.07358629844758    0.17826338378380
O           0.35443851571534    0.88657323653175    2.20201328331007
H           1.20913634287066   -0.34546854327667    1.80818663282381
H           0.29146922254922    1.28315309141235    1.31338600711240
H          -0.55945697864871    0.59968938427014    2.39931697877324
N           0.05293844917199   -1.65975494425357   -0.60122526533221
H           0.41672414598637   -1.01001357025384   -1.35175157636815
H           0.67145557216374   -1.53306538082337    0.25098153320878
H          -0.92934143519411   -1.34406052323076   -0.39902529766933
H           0.07001670410789   -2.62217240872574   -0.92452228993759
