    26
        -50.44865846  Gyration_radius:  2.47495910979 Dipole_moment: 5.854
 S          -1.63214090120877    0.40369727573591    1.20369855498659
O          -0.87366987563843   -0.47369811491474    2.06800979915432
O          -3.04304453775262    0.32272225997610    1.32217758862760
O          -1.15301465824486    1.85341077801711    1.41832211213258
O          -1.20525621694405    0.15075819943969   -0.26341125985785
H          -0.67969401938427   -0.73201911601636   -0.39844278062708
H          -0.16744321773671    1.81810027005507    1.24484796984983
O           0.06266596277156   -2.00542287689922   -0.58664271070136
H          -0.60225851560886   -2.57084377535489   -0.15432269326611
O           1.36886080125506    1.65303379221596    0.86832973022895
H           1.85820244253055    2.37792739698607    1.26224213806777
O           0.05574521025982   -0.19120877789960   -2.81702006400831
H           0.25494414780780   -1.02582813466387   -2.37564927431562
H          -0.77999748623741    0.10140697251354   -2.44161071584274
O          -2.12562643998928   -2.55940941252845    0.93470625556393
H          -3.01046407415320   -2.21470554640383    0.79634461465960
H          -1.72626336741019   -1.97904548846060    1.60126156007758
O           1.62262840010776   -1.12306123206160    1.33848396980762
H           0.81875004575959   -1.02303548040615    1.87758203968987
H           0.78297373287108   -1.84816954442858    0.07879740704296
H           1.85811801496047   -0.21321339250867    1.11188015642742
N           1.69277680112512    1.87975527221319   -1.70795590053637
H           1.34437300665261    2.75360955341045   -2.08247541156915
H           1.47141247723655    1.74414587834317   -0.14619574898422
H           1.15303327623540    1.12568729693817   -2.14500949114811
H           2.65438897074537    1.77540595670058   -2.00794785546527
