    26
        -50.46172230  Gyration_radius:  2.52011764435 Dipole_moment: 6.738
 S          -1.46555568428832   -0.97955278716565   -1.39662138671222
O          -0.51018316782286    0.11575469181070   -1.66923880584984
O          -1.35979952917363   -2.05070334391042   -2.33683991028042
O          -1.32150794648965   -1.41468398521241   -0.00737025728713
O          -2.89161244210400   -0.32085425795471   -1.52654555521254
H          -2.87818403845880    0.46375736727336   -0.97731489842758
H          -0.14123018974131   -2.72304235938129   -0.16955567872145
O           0.58748832789531   -3.07842108885021   -0.71479743814827
H           0.16772761149746   -3.14263814985329   -1.58513897092495
O           1.58427470074780    0.40116555518296    1.80097129181502
H           1.94344633070996   -0.00619529296947    2.59007645098157
O           1.12243937259906    2.98899103456582    0.79260764282303
H           1.41170857342375    2.13935228150769    1.16084583018692
H           1.09608490691642    3.61073721236181    1.52148832608884
O          -1.35026354627850    2.05921688992072   -0.08108091048861
H          -0.57885851368371    2.62241505822394    0.10250783417293
H          -1.03055700075298    1.43808191793690   -0.76509639553333
O          -0.96625228094114    0.33108249692027    1.92870814215586
H          -1.23360733070101    1.09741007390691    1.37506792125987
H          -1.17227753204136   -0.43758414473636    1.35615820224239
H           0.56943392618156    0.36224312010846    1.90556651341162
N           1.72058791789200   -0.69286750747113   -0.65912274771013
H           0.86848965930749   -0.24844031867073   -1.13277021142875
H           2.56892248353856   -0.49839521213960   -1.18002536415618
H           1.77621407789680   -0.31058316543342    0.31570912730326
H           1.48307134366795   -1.72624609651594   -0.64818876115849
