    26
        -50.46827123  Gyration_radius:  2.47320637602 Dipole_moment: 4.484
 S          -1.32448160895440    0.54997589610890   -0.95300268728737
O          -0.07553973819641    1.33533805149224   -0.83747329297270
O          -1.63271013493458    0.24508270873608   -2.32682237949841
O          -1.19705481999231   -0.65554109142429   -0.12769803062512
O          -2.47313410764283    1.41354253184823   -0.38195882368182
H          -2.32354154371123    1.53938132481038    0.59737732280407
H          -0.77732868151115   -2.24002902020790   -1.45340135196961
O          -0.44035252724343   -2.05819396492777   -2.34006248158885
H          -0.98745188892993   -1.28379824243206   -2.60944666861948
O           2.55601778765218   -1.63308319008956    0.56157130592410
H           2.52484263286163   -2.59054473680656    0.60016059532586
O          -1.98000111833699    1.90089617337122    2.12191749925593
H          -2.32857709379722    2.77634944936026    2.30033151156668
H          -0.98895458380983    1.99984828174944    2.06298962619547
O           0.59083772256439    1.98053943394147    1.65352739621436
H           0.80904839214095    1.07588516127255    1.92832826042775
H           0.44218999934845    1.90910767488791    0.68792581201929
O           0.39899368084724   -0.76209634255219    1.88760054052973
H          -0.23311618612054   -0.70802979732187    1.11563974725544
H          -0.13216735550384   -1.04291447310580    2.63430420658326
H           1.85340810165378   -1.30872619490643    1.16397659081465
N           1.57191809156998   -0.48781066169637   -1.66923055128636
H           0.98148464231486    0.34253452810386   -1.34141710637682
H           2.22199446545753   -0.19885863280072   -2.39256570215963
H           2.07464107198314   -0.89835939950484   -0.84561323156542
H           0.86903479037474   -1.20049546781947   -2.03695808721863
