    26
        -50.46539902  Gyration_radius:  2.43468861883 Dipole_moment: 6.437
 S           0.84176190451429    2.08642471525584   -0.66856452452071
O          -0.03965924414049    1.42202724299187   -1.62667853449684
O           0.17969827892155    2.95718839125955    0.25030330517437
O           1.68096719583907    1.09142917195110    0.01590140621781
O           1.83443740663480    2.95543586179579   -1.54810610391198
H           2.05475844647658    2.37474207229962   -2.27017349416867
H           0.76217115417346    1.01349843841829    1.34899770381973
O          -2.07753287295997   -1.68734765329847   -0.15461860275141
H          -2.99101706039514   -1.97278538070810   -0.18100632553348
O           0.10937461951083    0.88943799111586    2.08123450035006
H           0.01487101671933    1.76560947042138    2.46169163807345
O          -0.03041058360044   -1.21768880467099   -2.11733411625311
H          -0.83308667368895   -1.50977910347591   -1.66524988107455
H          -0.04240524597738   -0.24028013397342   -2.06534944266678
O           1.84098334588758   -1.51356202151118   -0.30143550135426
H           1.99134004124346   -0.54820102095928   -0.19205272867092
H           1.26107792080427   -1.56211646625723   -1.10534134379240
O          -1.93691847889518    0.87532540832976    0.13155110013778
H          -1.41925279984527    1.07404613654605    0.92643474090405
H          -1.38207595285328    1.20331042082694   -0.60478764998766
H          -2.09687207015885   -0.68477289427752   -0.08251956266776
N           0.04405549668022   -1.77364452031077    1.50368066690128
H           0.01342430338455   -0.84372785584477    1.95190978561459
H           0.17678809343837   -2.50785419631848    2.18933258187018
H          -0.83348378129017   -1.90769490550347    0.95719957950265
H           0.87700551957232   -1.73902035410648    0.76498081328931
