    26
        -50.46212909  Gyration_radius:  2.57817294614 Dipole_moment: 3.923
 S          -1.87980242352341    0.11289601216276    1.42118641745302
O          -1.22455554699591   -0.20446368800883    2.67018938905669
O          -1.29880586612150    1.25804494759063    0.72793163477313
O          -1.99144455869444   -1.02835172904388    0.52897596427967
O          -3.35459043553229    0.54614781283503    1.81791251304788
H          -3.39520794665054    0.19469554657726    2.70028018192589
H          -0.81187007457003   -1.90923464552413   -0.00320216996344
O          -0.03233255497864   -2.42421358341418   -0.35715688228352
H          -0.38362107083005   -3.27712452301905   -0.61615734334206
O           1.35175062701914    1.10941284873903    0.59271860197670
H           0.42597597791712    1.38173840678049    0.75968600464232
O          -1.57165108601944    1.10564710606512   -1.87396957440120
H          -1.61196724506767    1.11242658489382   -0.88717109305666
H          -1.65929858722627    2.02173123405261   -2.14334835443039
O           3.12863041125323    1.25999396403220   -1.65067454798827
H           4.01848393960981    1.61279097607157   -1.62562863883879
H           2.73623455041648    1.44576007251992   -0.78567607633394
O           1.15184034547648   -1.14506366595989    1.92482043225245
H           1.48267734198694    0.33278904284833    1.19288904641347
H           0.31410383189580   -0.87030486939211    2.35118968193198
H           0.90712450437762   -1.80118920156382    1.25970056806100
N           0.74609475003866   -0.18431882871174   -1.63516611804993
H           1.50297526859274   -0.09640768946956   -2.30920832313335
H          -0.14200333432096    0.27360793335327   -1.95304495399570
H           0.54942396289622   -1.16565305810338   -1.35583667985781
H           1.04183521958565    0.33864301389318   -0.75123967048801
