    26
        -50.44244544  Gyration_radius:  2.56225178204 Dipole_moment: 6.890
 S           0.84912341013365   -0.78629343118654   -2.44780530316971
O          -0.15824747911392    0.06180310217872   -3.01771785092383
O           2.02013725219444   -1.05859834812204   -3.19349420132652
O           1.24219646094790   -0.15995651839597   -1.05731651043403
O           0.21279667486978   -2.13595023629026   -2.01750749387437
H          -0.56969249017992   -1.94189656011879   -1.43668656800766
H           0.67484969430437    0.68197093852871   -0.99756856176936
O          -1.61693644893950   -1.71332470664801   -0.20644727741662
H          -2.16216505081500   -2.49372849072849   -0.09378265327246
O          -0.24738585502102    1.90217592045231   -1.12434824793978
H          -0.48414552597674    1.61296664937685   -2.02070783423524
O          -0.09890452916967    1.06876413898355    2.54238060410040
H          -0.29160841259500    1.69209305364052    3.24422176774622
H           0.59384045644508    1.49120963119789    1.98350352799937
O           1.67959245764980    2.16904176141678    0.85427833876275
H           2.24218516664553    1.50934144828999    0.44022974515943
H           1.08069504908144    2.47523665181529    0.15802256788459
O          -2.01513654779413    0.94669678371657    0.54691056657553
H          -2.06809243602431    0.03084887902900    0.23426167114511
H          -1.44919229708320    0.93162735108201    1.34035539020293
H          -1.01891687500070    1.65897066947359   -0.54007581418420
N           0.38814015754776   -1.61885521575916    1.45451087241648
H           0.25098185575556   -0.83397728403287    2.08518708035157
H           0.74345150730129   -2.40155600680987    1.98724873927057
H          -0.88990165578884   -1.74374327494800    0.50535124882323
H           1.09233546063300   -1.34486687611576    0.77699619608884
