    26
        -50.46949749  Gyration_radius:  2.56188097785 Dipole_moment: 5.891
 S           0.27571523006720   -0.45578817344107    0.17825780091096
O           0.95920433194695    0.58910256042825   -0.74956698296667
O           0.70211791962780   -1.77828599148640   -0.19984770019961
O           0.67182932002589   -0.06052903640050    1.52556598310801
O          -1.17830139341667   -0.27132557467742    0.00335106379454
O          -1.35023856764434   -1.81422489097134   -2.16910297691424
H          -1.45430040964194   -1.26846804765927   -1.36801007770038
H          -0.84854272086095   -2.58163089683103   -1.87914218223658
O          -0.96095756247678    0.28931136758366    3.57908492594044
H          -0.32877009385524   -0.01923266833147    2.89168519380987
H          -0.42261987166296    0.58844903429091    4.31411748608430
O           0.70651281782171    2.55418979840537    1.18901882625576
H           0.88441599019084    1.60891265445623    1.39656223242291
H           1.02815825163244    2.65923264638680    0.28932896776105
O           2.33611018888557   -2.25859922341640   -2.24233698637104
H           1.76620264648049   -2.20069358058014   -1.44692187900544
H           3.23640365619312   -2.15053116734313   -1.93336882893246
O           0.66276783601640   -0.32061849658056   -3.08100931471006
H          -0.17456576655877   -0.82763960951644   -2.96962537872625
H           0.84268066199049    0.27551277133054   -1.72414603887072
H           1.36592855312907   -1.00046768361557   -3.06472671778187
N          -1.78145646201578    1.72149598219888    1.49455644143092
H          -0.92382381527783    2.31691325731542    1.35555509559836
H          -1.70730707944160    1.29673765994545    2.44864627818542
H          -2.65286545318602    2.21768464065119    1.34655993152612
H          -1.65429820797957    0.89049268793717    0.81551484760081
