    26
        -50.46824544  Gyration_radius:  2.53346692891 Dipole_moment: 2.071
 S           0.34607620033096   -0.05031493915138    1.91947590533440
O           1.20237137697120   -1.13976819747562    1.46514654061157
O           0.36723355040951    1.08326897149425    1.01523149785430
O          -0.99476353869227   -0.51054665382714    2.22187962371912
O           0.96991090546620    0.47051968926709    3.27932272657321
H           0.87272734516622   -0.27202645109453    3.86765865320854
H          -2.40598751511086   -0.00237906247749    1.41690206330485
O           2.43518097213179   -0.73473686116425   -0.87024550863687
H           1.99768738846266   -0.87882898762637   -0.00627094986091
O          -3.12744269212622    0.32243037317141    0.83726550337251
H          -3.55607410460762    1.03035464895084    1.31922850859703
O           1.74473758620303    1.85421639929778   -1.29657659801178
H           2.15242102956145    0.96846712030994   -1.25037103496366
H           1.31088487675381    1.95088310300058   -0.43837441122796
O          -0.04462544709751    1.18184928047504   -3.12537663418339
H           0.63433721787155    1.59131378434141   -2.52821523440613
H           0.44551160626848    0.62573729576015   -3.73311755931994
O          -0.70737584060745   -2.35526611087478    0.05701615146393
H          -1.41502037694830   -2.38676208888704    0.70710412232186
H           3.30324037341066   -1.13328589375589   -0.79596866995268
H           0.08354632872140   -2.08355373822435    0.56238672557355
N          -1.13488374073942    0.09224034969430   -0.95501399676329
H          -0.97404383413975   -0.93404753579827   -0.82684544365737
H          -2.10654938116748    0.29836244602871   -0.67741485966678
H          -0.52492421639492    0.57252281625438   -0.25290417005996
H          -0.87417607012737    0.43935024233540   -1.91192293117719
