    26
        -50.45666381  Gyration_radius:  2.3779668681 Dipole_moment: 9.513
 S           0.05343537617817    0.29933153295014   -2.01635916812688
O           0.05805299879920   -1.14328888879139   -2.21566552468890
O           0.14348010052220    1.11131268363809   -3.18110245118065
O          -1.06808326459935    0.68187137622851   -1.12386522891860
O           1.35744710125126    0.54239127134435   -1.12045971851684
H           1.26233127748019    1.48678947546777   -0.87458130862803
H          -1.45198853073432   -0.74329642118446   -0.55029357630720
O          -1.58011984032114   -1.62324138715298   -0.09749515486776
H          -1.41279689825604   -2.24937613228855   -0.80889857987256
O           0.17413324682698    1.16987502564601    2.14114931303669
H           0.21313389694797    1.60937551807572    2.99142064838403
O           0.40687788427607    2.79044908141232   -0.21197580741974
H           0.37373328451091    2.43526395142714    0.68921444457492
H          -0.36477255798227    2.42737868311235   -0.67036733655390
O           2.10383770256802   -2.01949538818625   -0.90881650046783
H           2.78110215715683   -1.37816481286988   -1.13780911914563
H           1.34155959294238   -1.78817691203581   -1.50843226899869
O          -2.28730186855935    0.98792378720634    1.23895460916388
H          -2.72230617517487    0.13386262524906    1.30397722600210
H          -1.99660627413726    1.04818443771289    0.30862873644636
H          -0.78563199157453    1.12203577617238    1.88766261177217
N           0.69356197970009   -1.37906740080866    1.20173230331047
H           1.38686278861774   -1.57853400167120    0.40326674433912
H          -0.27177566468616   -1.54715136434956    0.76795641952226
H           0.85820279827553   -2.00449328008205    1.98367969469535
H           0.73363088998962   -0.39175924622924    1.50847899244846
