    26
        -50.46539893  Gyration_radius:  2.43477241894 Dipole_moment: 6.437
 S           0.10661619953150   -1.03384524244481   -2.10425099406642
O           0.91431951662608    0.17469559387941   -1.95142115364292
O           0.78068924812317   -2.25028413511820   -1.77744756027092
O          -1.16030198607222   -0.88744969180675   -1.37191358869908
O          -0.28612782113337   -1.08143603624954   -3.63975558079383
H          -0.50642856694593   -0.17652927812263   -3.83886285389039
H          -0.67652515830711   -1.72113511143081   -0.06874469524445
O           1.35241824956063    1.42792399568103    1.82139120870104
H           2.09152869505693    1.70623159366661    2.36261164164859
O          -0.30458940200144   -2.11242373479510    0.75970169759610
H          -0.01635269105012   -2.98916947331427    0.49561996415880
O           0.12966433559131    2.36290990342692   -0.60756561628286
H           0.65016287551250    2.29880569311361    0.20413739679043
H           0.45953901926492    1.64599832860077   -1.18662316346414
O          -2.11324153126951    1.14291700873289    0.00020340479391
H          -1.94837600140262    0.38194697864590   -0.60001772890979
H          -1.40730396454239    1.79092167937686   -0.25773428145589
O           2.02578456769008   -0.56976723609280    0.32945578532776
H           1.43078155560845   -1.31274384229808    0.51158428040646
H           1.81204993833137   -0.31035633966234   -0.58950292478094
H           1.69253107045896    0.67999317882778    1.24223899543851
N          -1.00887741928837    0.15920594499387    2.09019062018493
H          -0.77478290318400   -0.80673737896646    1.80941791973043
H          -1.54559628608242    0.17233525344855    2.94957567949945
H          -0.12369345620933    0.70293060344017    2.17748273911704
H          -1.57388809386720    0.60506175446835    1.24022882810841
