    26
        -50.45584578  Gyration_radius:  2.50547851263 Dipole_moment: 7.202
 S          -0.38796005958520   -0.92222102943127   -1.65043374307203
O           0.48615832534317    0.26688597629806   -1.74496037529710
O          -0.34811713173697   -1.76040838502275   -2.79393310423950
O          -0.11095320416481   -1.58605310713802   -0.36588818528376
O          -1.85179615054810   -0.34182153729486   -1.50240045838532
H          -1.95520122548674   -0.04854306996730   -0.58050445930481
H           1.56361407263008   -1.50595665743444   -0.34561484424873
O          -2.19700339154306    0.34408511409310    1.14066709620629
H          -3.11873509326531    0.59367870060910    1.22256099036757
O           2.50009731487941   -1.21589628498426   -0.37417607376053
H           2.56472133135349   -0.70253606216041   -1.18395929885310
O           0.00488663303701    2.96758372612147   -1.54882155344061
H           0.15595110291154    2.05997014382390   -1.86448189206235
H          -0.08581376849218    3.51231580605707   -2.33105142657961
O           2.49179885628079    0.25340382301243    1.81855932365055
H           2.48631652666440   -0.35750852505543    2.55642754888863
H           2.65090009451589   -0.29970585803890    1.01009580550845
O          -1.86872941313948   -2.23380835759444    1.42875357942458
H          -1.41126413670986   -2.72601761533198    2.11209146194045
H          -2.14034244365654   -0.61697099273075    1.38121607974169
H          -1.22828667939512   -2.14924703712921    0.68008817050131
N           0.35722608094928    1.30495834196416    0.61935284424992
H           0.46062323838014    0.80294891358657   -0.32638102362278
H          -0.55766513052214    1.05431117806972    1.01408110504372
H           1.15420496729563    1.00542181367644    1.23341748849891
H           0.38536928401877    2.30113100201477    0.39529495412840
