    26
        -50.46202826  Gyration_radius:  2.39583951647 Dipole_moment: 6.194
 S           0.93011416893693    0.36962386801551    1.58220988780782
O           0.08907486636712   -0.73883211918769    2.07838064875708
O           1.02377741354081    1.47140677802704    2.47803263735063
O           2.36018204308910   -0.26274343173460    1.36818585857382
O           0.49208961072958    0.74293864306056    0.23050947357433
H          -0.40159428269999    1.61835866945635   -0.88976610815628
H           2.24408133607569   -0.89036124865377    0.63410572547504
O           1.88079627989822   -1.79367948269898   -0.91034190655060
H           2.66057511975555   -2.30438696509209   -1.13459267678424
O          -0.95316688970161    1.97588385292310   -1.61569566208306
H          -1.17287096072361    2.87444753393260   -1.36523457584098
O          -1.85008856533223    1.09829174556465    1.92058233335873
H          -1.32966024599728    1.87846392305655    2.12821170018721
H          -1.27401567796213    0.35968540718726    2.17818619344621
O          -2.53837665489454    0.06363455653928   -0.53333258852209
H          -2.12250466342387    0.72825517076013   -1.11704521967837
H          -2.49623293585808    0.46160334007014    0.35880708102838
O           1.84906218384261    0.58796537563715   -2.01181450256171
H           1.48106692399018    0.82077313018245   -1.13153472465514
H           1.92991987568622   -0.95950295110998   -1.44591353030375
H           1.18526193332210    0.88476497290189   -2.64028571629750
N          -0.80361607550686   -1.82729274736112   -0.05793339551219
H          -1.24006617887966   -2.73730911434204    0.04429282342567
H           0.02357324514618   -1.87831435088346   -0.66121379624684
H          -1.51916550872745   -1.08531640245042   -0.38091468684617
H          -0.44821635067934   -1.45835812380255    0.89411471705346
