    26
        -50.44317908  Gyration_radius:  2.6035771115 Dipole_moment: 5.591
 S           1.14659424717721    2.11094708759688   -1.08916317185253
O           0.20332647253865    2.91614269759621   -0.30082765230296
O           1.49862183667370    2.67951389363681   -2.34783771124817
O           2.50251463184382    2.10928051109561   -0.20649278570016
O           0.73814258860010    0.71601710250277   -1.09840909052409
H           1.76463053134495   -0.14037062809625   -0.13422661615944
H           2.87037288051121    2.94633020549081   -0.46785690853069
O          -1.58895386692177   -2.17213501649541    0.52084447978497
H          -1.89318447911188   -3.07443387393014    0.62127188585839
O           2.26905058083595   -0.61558323170178    0.56406977180009
H           2.94251204597702    0.00875561541597    0.84217567384835
O          -2.93460019061960    0.10441960257415    0.00408382188729
H          -3.76711952959397    0.08450340839110    0.47921380571481
H          -2.50610436261112   -0.76833609254826    0.13644029204711
O          -1.13116411678738    1.53137432497931    1.21129703269941
H          -1.84751683970537    1.10032678683736    0.64980227842756
H          -0.52827458383464    2.14988651494999    0.55090251628215
O           0.05114327351968   -0.54001506744602    2.02423581588327
H          -0.56722518566349    0.72950288796770    1.58388754817225
H          -0.51857482049595   -1.21837504954395    1.62000269095943
H           0.92627074543800   -0.62773254898077    1.57629354554119
N           0.12576626370874   -2.04382831510183   -1.44228037351671
H           0.22615916291212   -1.03075918619922   -1.50340860537120
H           1.03056977171388   -2.40259554645622   -1.16001171799524
H          -0.93947416468611   -2.16483383424182   -0.26094823589891
H          -0.07348290276621   -2.38800225829156   -2.37305828980266
