    26
        -50.45909915  Gyration_radius:  2.47768989148 Dipole_moment: 8.432
 S          -1.21623783977431    0.38675021740829   -2.12454258084202
O          -1.39666146563955    1.64710598705656   -1.38076774978735
O          -1.20551152766632    0.53218225581575   -3.53826529620797
O          -0.01467350817788   -0.30126463448457   -1.59223248449103
O          -2.42436753692211   -0.52898364917711   -1.71372647473199
H          -2.34305281530928   -0.60803560854997   -0.74647870367638
H           1.32803063555176    0.30274728472368   -1.17681804036118
O          -2.04917675309284   -1.11007533499923    0.91243286516584
H          -2.77893552914496   -1.67255320922571    1.17581330431925
O           2.18717312160833    0.68154950899273   -0.80690018126447
H           2.80322702883022    0.67471157387912   -1.54052870795480
O           2.02696553238137   -0.99688019414564    1.32155368692524
H           2.17057397033249   -0.40912253866511    0.54947276990208
H           2.88827961688315   -1.19500695543566    1.69050572369223
O          -0.20035913519845    0.33566711714497    2.32051465153795
H           0.56450335056436   -0.23809644432158    2.14541093383902
H          -0.97123374954165   -0.12881941198089    1.94572424206400
O          -0.01039145374629   -2.40539942454340   -0.01866578823155
H           0.00760375092358   -1.76504223909424   -0.76483059458681
H           0.75151003821671   -2.16410538112508    0.52751809452531
H          -1.31183476335821   -1.71914764959866    0.60562489473158
N           0.25447533287876    2.16196290989175    0.46133455789213
H           0.22230331114756    3.13902187238544    0.72755033723144
H           0.03991339360225    1.52445516706829    1.28166797595223
H          -0.49149532177423    1.95396031760485   -0.33160508989278
H           1.16937230643174    1.90241846336037    0.07023765425280
