    26
        -50.45777594  Gyration_radius:  2.47459058004 Dipole_moment: 6.814
 S           1.30957872805294   -1.22677062631281   -1.28765628499400
O           1.86692836196270   -1.29607581412728    0.07428662995415
O           2.07640740749783   -1.87070405141462   -2.29383554511695
O          -0.08698890283340   -1.96924946562038   -1.20517664268233
O           0.97975313854754    0.18046235161130   -1.59358813471622
H          -0.43325870902288    0.14256629485122   -2.49369251732401
H          -0.51791951773628   -1.63821469215393   -0.39332219156562
O          -1.52119035438283   -1.02300547569961    0.85731087674218
H          -2.31544050998216   -1.55959592714080    0.88484559586978
O          -1.36871734631150    0.08271517496699   -2.78619191424962
H          -1.52016317072321   -0.85253407558872   -2.93836281816136
O           0.38646072258417    2.27933197083218   -0.26370822314054
H           0.64629081369854    3.04503262049585   -0.77761791040427
H           0.61366645079770    1.48377695823537   -0.82824562392329
O          -0.17155937091274   -0.55383284201422    3.13449357770789
H           0.19017372728557   -1.40717139103537    3.38165588732434
H          -0.75382167664056   -0.72160206647611    2.36197113856356
O          -2.13896311920199    1.10402172928431   -0.43268089809907
H          -1.79286859492913   -0.15718110508589    0.40282932367875
H          -1.40233223244037    1.71776858242282   -0.28570991272498
H          -2.02598216896776    0.79036873016773   -1.35966499642330
N           1.60829516861341    0.71922724231992    1.58786606704558
H           1.76461557959682   -0.13400697646148    0.89912909473626
H           2.49032408502337    1.01657303105684    1.98876638797266
H           1.16532593351349    1.48233263291524    1.04275638942819
H           0.95138555692494    0.36576718995279    2.32354263448540
