    26
        -50.44596054  Gyration_radius:  2.52172442865 Dipole_moment: 3.875
 S          -1.76206924492404   -0.79012850486414    1.55271601723862
O          -0.95776544565857   -1.93864930666562    1.19935142648684
O          -2.63011100618423   -0.92786132506233    2.65990158637971
O          -0.78436419150130    0.40692984251821    1.75482597344613
O          -2.58686996938383   -0.34810580017476    0.32073336938236
H          -1.97635367217641    0.01147634413513   -0.38637159883351
H           0.15003882849652    0.05707324894491    1.56240135200887
O          -1.04977446766777    0.76278096628084   -1.43171969575487
H          -1.58432898934776    1.11029783915637   -2.14727705344394
O           1.44172667929829   -0.69270035517845    1.19736558499168
H           1.09449330822204   -1.55684770063630    1.44679952763107
O           2.61068196261404    1.60366261578419   -0.21268335719960
H           2.47555660759859    0.95138266209062   -0.90995991938328
H           2.68860995823030    1.09768553075305    0.60165622129063
O          -0.17529214507691   -2.94579139536571   -1.15469518949982
H          -0.54430177326946   -2.62196714967960   -0.30916683206036
H          -0.20184691822972   -3.90206474524128   -1.11042520253147
O           1.26924978785319   -0.68905972182492   -1.43543261248604
H           0.47599431730927   -0.14347166678226   -1.57967983783680
H           1.44499207825252   -0.69511209658581    0.19995284466304
H           0.94626905008907   -1.60145259368017   -1.54164778870419
N          -0.04908726169421    2.67391545174997   -0.02420414849500
H          -0.68402830098757    1.57119483439995   -0.89884668270346
H           0.95845545781076    2.50632462506501   -0.07919067947051
H          -0.22142428193103    3.65627552010002   -0.19097997775270
H          -0.34845035901913    2.44421287985825    0.91657668141198
