    26
        -50.44596050  Gyration_radius:  2.52174599196 Dipole_moment: 3.873
 S           0.50818356802808    0.05587599897460   -2.42456240786012
O          -0.02416680570826    1.35296268898600   -2.07097371376316
O           1.15594458248790   -0.05460244690113   -3.67622110784313
O           1.45382508158908   -0.38107124090533   -1.26540166827916
O          -0.62404750276484   -0.99582534133380   -2.35139153340845
H          -0.91136967449458   -1.12188933536876   -1.40097457478655
H           1.42007657698538    0.35608760835141   -0.56654234619295
O          -1.24081812536654   -1.47818023342434    0.10965548749459
H          -1.87690589226955   -2.19432417435505    0.14204291413924
O           1.18065248921203    1.57450597432869    0.33889945599052
H           0.94568915775625    2.15908072759444   -0.39094658170376
O           1.22821499009312   -0.00653607193682    2.81461779289235
H           1.75340967717044    0.62189151008694    2.31017804762115
H           0.32099224909010    0.31684673070138    2.76552911640909
O          -2.23992925190869    2.10546689660452   -0.77046345989608
H          -2.59133147141722    2.89536386810739   -1.18234633887255
H          -1.48563492425915    1.82037145677494   -1.32341612875261
O          -1.14972162019104    0.93428934313289    1.39663056803614
H          -1.70431386104273    1.49754857303997    0.82793502534917
H          -1.28761297456430    0.03827032620561    1.04190566630769
H           0.31639999064500    1.37079829858271    0.79350407053112
N           1.04522761098633   -2.24219459439965    1.01863392726806
H          -0.34501144166799   -1.84434760246989    0.47639582726990
H           1.24707711874246   -3.17940932300094    1.34016030130416
H           1.67959646829558   -2.01192061931429    0.26230363790084
H           1.22557400573776   -1.58905900951955    1.78484802435319
