    26
        -50.46158936  Gyration_radius:  2.59047016479 Dipole_moment: 2.473
 S          -1.92467158604534   -0.51487701349964   -1.02892425559522
O          -2.84279577261471    0.56135386959138   -1.29375180554169
O          -0.77964789938631   -0.54921713544382   -1.92555647519069
O          -1.51593524581047   -0.63405257607374    0.36309725135068
O          -2.73248066910147   -1.86964547902051   -1.30852262581530
H          -3.28700330476527   -1.64083810098455   -2.04795986544395
H          -0.57826151131765   -1.94750167177827    0.71471696202703
O           0.11988849497670   -2.63379163932935    0.82964234658299
H          -0.23486002057383   -3.43231445204126    0.43694062790392
O           1.14194279928706    1.57071033519192    0.90095676737136
H           0.42187217844780    1.96145749220174    0.36243533021850
O          -1.06854429643768    2.33774765655717   -0.43170305048537
H          -1.61783978896291    2.89125449552021    0.12851017821567
H          -1.67892476956151    1.68970161348561   -0.83470149258677
O           3.55174708967830    1.09437127336935   -0.59682866179496
H           2.91870071995090    1.49513655745445    0.01524047475778
H           4.05834497484548    1.81419755450679   -0.97402200152522
O          -0.42855047838790    0.28866372370483    2.64661573061812
H          -0.11064625263514   -0.54079615069516    3.00913221784475
H           0.68644013214460    1.24406092245766    1.70600102050040
H          -0.98255391560210    0.04212349725416    1.88363567773466
N           1.40117384712851   -0.66568448921679   -0.51908104357970
H           1.25789716683495   -1.53005433233522    0.03105006940429
H           0.59754657346052   -0.60572163210427   -1.20905696028047
H           1.31237282404796    0.18485637049488    0.10952262882557
H           2.31478874104475   -0.61114069878998   -0.96738904562735
