    26
        -50.46179014  Gyration_radius:  2.43780579496 Dipole_moment: 5.886
 S          -1.95309784319505    0.04561801867847    0.69850871083066
O          -1.82206753453840    0.57050761628504   -0.68065757645073
O          -3.29004523940934   -0.00260172819642    1.16990570972286
O          -1.20817245762110   -1.22044186466377    0.79072785107422
O          -1.14978836192522    1.06818530119176    1.59920252125168
H          -0.20048041265543    0.85205021797235    1.50742012661646
H          -0.45101690055507   -2.15839413718248   -0.27429979024743
O           1.49150662597507    0.55757284115203    1.56599754979751
H           1.82418107182542    0.93496037534734    2.38211654488164
O           0.09823249126257   -2.65711125880870   -0.93405136097643
H          -0.44684156284678   -3.38816135331490   -1.22761500479437
O          -0.52778512248143    2.88819070942986   -0.55518658951573
H          -1.12481497007558    2.11543560829443   -0.64832429204396
H          -0.69996760182764    3.23244587024646    0.32355548451056
O           1.75956654349844    1.55140596601139   -0.98351969320957
H           1.88352659164925    1.21650609173672   -0.08093686061597
H           1.04334645118296    2.22042679614818   -0.90304339068255
O           1.04739904103280   -1.98911366306721    1.91528759714818
H           0.10616540625070   -1.80499506422014    1.70662304979854
H           1.35279103405397   -2.55835376524050    1.20322998475600
H           1.44627854861697   -0.42687622953991    1.71201459940167
N           0.17929142532179   -0.22373155417301   -2.08698728055626
H           0.05037568970182   -0.11837207501432   -3.08696279016400
H          -0.71137651756486    0.07911779440150   -1.55704948209460
H           0.35531804572772   -1.21370412004150   -1.82475410913840
H           0.94747556859659    0.42943358656943   -1.73120152929639
