    26
        -50.44360242  Gyration_radius:  2.53107186464 Dipole_moment: 5.967
 S          -1.29488008890809   -1.13610055143062   -1.80134463511727
O          -1.03543877615230    0.28416425033219   -1.87250400063764
O          -1.91121410190962   -1.74921770651182   -2.91389426934133
O           0.04645458926387   -1.82920073894994   -1.43450382242765
O          -2.15598075813499   -1.41592052885458   -0.53718614596353
H          -1.69694989051736   -1.03903231982794    0.25661807888873
H           0.78009636251036   -1.10259849307349   -1.51488735024155
O          -0.88827561758178   -0.56402821097047    1.59993251578375
H          -1.39688662055766   -0.82573935289096    2.37009389142017
O           1.62169767729149    0.11199862830206   -1.56995677046346
H           0.91904241824580    0.65486926036871   -1.95370803063593
O          -1.64756141139231    1.89604196744972    0.18501919422845
H          -1.60108880820023    1.22889620227712    0.87676211711286
H          -1.52148030192323    1.41295362733918   -0.65319309419020
O           0.56834870100849    3.40384469927472    0.39289312042285
H           0.66561645332327    3.95334145583699   -0.38529931690739
H          -0.32575221128974    2.99902718824510    0.33727284298438
O           1.56466267298985    0.97448955963334    0.92178129641728
H           0.73809610536172    0.64547690749928    1.29256846665498
H           1.72091902695102    0.42890130997826   -0.63185872062426
H           1.41460857935840    1.93456638494233    0.79310700875656
N           1.17090335366779   -2.13382033718443    1.27385353297917
H           1.97974498865856   -1.52464758897354    1.22505879437159
H          -0.10153892298807   -1.20948957435086    1.53654741981825
H           0.98838247389200   -2.47989234788220    0.33665595270640
H           1.39847409703660   -2.91888367059145    1.87017192400964
