    26
        -50.45151766  Gyration_radius:  2.45896816402 Dipole_moment: 4.035
 S          -1.02788460001013    1.18925135008924   -1.16264948209853
O          -0.25973940900116    1.30616969184085    0.06103833841106
O          -2.40860186787596    1.49843180112471   -1.01636222860628
O          -0.38171505495746    2.03221150095981   -2.25512985248596
O          -0.84078051263555   -0.24275180523308   -1.72508117516991
H          -0.82778663481573   -0.96331565874777   -1.01274757318719
H           0.55433562436333    1.63128689350036   -2.34021459670866
O          -0.78493160750135   -2.11300891914455    0.00380698782514
H          -1.56594126018390   -2.66158843642702   -0.08912544704531
O           1.81974742661852    0.79336589843183   -2.43701632546860
H           1.69784252578248    0.26049088043959   -3.22598997431133
O          -2.30920263928098    1.08872345035362    1.81505682483645
H          -3.08089524780263    1.19904827747103    1.25391347858835
H          -1.56362392127675    1.34844570634856    1.24953011235427
O           1.38171976813396    0.43476992462873    1.97918620939018
H           1.57204808166089    1.16133397524628    2.57487384138351
H           0.83949118419292    0.80947200633528    1.25844376674370
O          -0.85580078594515   -1.13248463451483    2.38130809941839
H           0.01195644569812   -0.69444616514287    2.43942488294165
H          -1.50610418704857   -0.40385435672298    2.33806457048157
H          -0.80271174584251   -1.76000555295458    0.95319932727785
N           2.09212866271652   -1.04550310393859   -0.54988535758638
H           2.91362146199061   -1.63068286942776   -0.64071934172194
H           1.91849715872373    0.13558905705312   -1.67496281734784
H           1.27773199780098   -1.64976641507784   -0.53492456542261
H           2.13659912649069   -0.59118247647750    0.35696231748914
