    26
        -50.43915287  Gyration_radius:  2.5799703258 Dipole_moment: 5.890
 S          -2.69061413793262   -0.56115850143413    0.76006344568857
O          -2.70291253982879   -0.39198177828668   -0.66891472100439
O          -3.77079070636884   -1.25115292585583    1.35735814218498
O          -1.33669825279089   -1.27688708429973    1.12144826605302
O          -2.53044508508382    0.81750086864152    1.45016765678354
H          -1.73484455504806    1.26563725101046    1.06730949110752
H          -0.82053768705371   -1.44594950123252    0.28672205403549
O          -0.02539554786762   -1.70460162014704   -1.10811160933733
H          -0.56304013256930   -2.33871122481404   -1.58615517858658
O          -0.30190027855566    1.70239061254830    0.45654348512630
H           0.15607899364214    2.54251835611353    0.36452815492471
O           2.05317923819020    1.75575898447638   -1.08310921842639
H           2.33522679718805    0.87194587190476   -0.80577366549162
H           1.63105458449053    1.64324616026586   -1.93778897852119
O           2.57060304739684   -0.99682754573211   -0.48967146860528
H           3.20879453928417   -1.48236536962072   -1.01440903763868
H           1.69322945545840   -1.35951562277068   -0.70059898463204
O          -0.63693505191621    0.63056989661254   -2.00541800382107
H          -0.20600366645720   -0.80799333393305   -1.54022390906413
H          -1.57547504703207    0.43091564324552   -1.84717743924336
H          -0.37897016878737    1.15308766845694   -1.21789130920011
N           1.20020050581984    0.11720880754141    1.90968617961607
H           0.32354752606442    1.11504487459114    0.99595616155242
H           1.92248163328133   -0.28482423518327    1.32229815560178
H           1.63188670479665    0.47275947574976    2.75191478080828
H           0.54827983167678   -0.61661574784855    2.16124755009169
