    26
        -50.43915293  Gyration_radius:  2.57995408294 Dipole_moment: 5.889
 S           0.33993723438127   -0.96140925521984   -2.66307106382665
O          -0.57220833085362   -1.87022422407836   -2.02054018543093
O           0.36634156572594   -0.93447208995760   -4.07663630931774
O           0.01600592246040    0.47516573033837   -2.10894226090319
O           1.77798947768802   -1.20248618314522   -2.13708835186829
H           1.75851427796803   -1.15783372431293   -1.14821998830370
H          -0.73657610941559    0.41552809165565   -1.45937009675135
O          -1.97299631353795    0.26111490420260   -0.41468380258579
H          -2.71910879469803   -0.01118704634941   -0.95215451293965
O           1.52396190177766   -0.83550107228320    0.42004259116035
H           2.00569738430013   -1.04636471537193    1.22473577142430
O          -1.21219131795505    1.86830771449475    1.69753854358754
H          -1.55612207216176    1.38975306423934    0.92390132592921
H          -1.96790361772836    2.22956508461772    2.16309415885542
O           0.29368979310303   -0.25797462905116    2.88422765265940
H          -0.37144756812338   -0.94865159251998    2.84079645161127
H          -0.13504736828802    0.54688308191290    2.55862800035740
O          -0.96676258331330   -1.87425299515152    0.61462790270520
H          -0.92822949498428   -2.26851227454020   -0.27353528789439
H          -0.05579970832393   -1.54277200139048    0.75658226127412
H          -1.65331243177532   -0.57436976421439    0.05760284583757
N           1.37682513330436    1.77639137047439    0.22672013779416
H           1.46580184239610    0.17613955466648    0.40122986307903
H           1.09522659241832    1.89960420697382   -0.73884040245402
H           0.62767981976066    2.11053923256290    0.82296067702862
H           2.20003479587547    2.33701954144456    0.40039406897190
