    26
        -50.43915320  Gyration_radius:  2.58026740672 Dipole_moment: 5.939
 S          -1.85512022506109    2.16765247615533    0.02772570434560
O          -1.32243308495540    2.11286555696084   -1.30794532670186
O          -3.07929151567590    2.84653647771793    0.22804725131129
O          -1.98272121315058    0.68117130650586    0.52747732937554
O          -0.79200718699627    2.75188153908464    0.99290379288870
H           0.04051201989493    2.22616219491250    0.89321581026228
H          -1.67477000496157    0.06425650891625   -0.19118681372879
O          -1.16910906224428   -0.89685883906648   -1.40162734965745
H          -1.81478547769799   -0.77604297973827   -2.10034219268267
O           1.19789125264549    1.10791306979899    0.71103082849719
H           2.14448105253164    1.07745524174236    0.87724996175344
O           2.70457256244748   -1.06231053841894   -0.23699779459030
H           2.66700759930221   -0.83627297673037   -1.16909102889396
H           1.99173247852847   -1.70056029978705   -0.08769417090393
O           0.40501834475257   -2.76311273564654   -0.11076078243124
H           0.41342320942791   -3.60355336490640   -0.57118820599735
H          -0.23157141335948   -2.19138345410659   -0.57300668729702
O           0.81780812899079    0.65337218338666   -1.92933397845820
H           1.15673547478401    0.75343398047219   -1.01546973107082
H          -0.35895700667389   -0.35745273384520   -1.67758908441006
H           0.19746706156080    1.39644613575002   -2.02341651966410
N           0.08125883451627   -0.80834372622149    2.11369194975988
H          -0.90049195426149   -0.56238541130088    2.06537022701806
H           0.33881995361929   -0.93384953184216    3.08323003845493
H           0.21477273294483   -1.68843406914034    1.62794299404676
H           0.80975742915185    0.34141399938670    1.24776377881791
