    26
        -50.46051403  Gyration_radius:  2.59587535747 Dipole_moment: 3.859
 S           1.27576765232401   -0.35534721370957    1.94757380430173
O           0.29031536235416   -1.37318368223879    1.61891617758644
O           1.15120256561687    0.20770113128107    3.25522183135582
O           2.69817479798755   -1.11086815827909    1.90456909531020
O           1.38942357527493    0.62694853981002    0.86434416495920
H           1.94965180574434   -0.22822394609479   -0.44466259334129
H           2.94275147203435   -1.20271609631627    2.82077081646626
O          -1.74901129799790    1.25638402171529   -0.85995181352786
H          -1.77031369788158    1.40496118420308    0.10124018996198
O           2.09182671548705   -0.77830779523071   -1.24796487796754
H           2.74498188172058   -1.43106937437815   -0.99196634303532
O          -3.07543228375323   -1.03713833841953   -1.98682373309712
H          -4.00403468056966   -1.07979818899029   -2.21656647790213
H          -2.89735287689240   -0.12338122698465   -1.72396750062856
O          -1.07198213540918    1.33618844293256    1.77649507707793
H          -1.14877758572836    1.10787088768460    2.70476386381346
H          -0.14085248620698    1.18576665163311    1.56059246751876
O           0.75425210907235    2.08226084325117   -1.37989535997101
H          -0.97408863093695    1.76808185864200   -1.17348960810037
H           1.04482160355837    1.79013548748620   -0.50181867804020
H           1.27654702009564    1.57015697635891   -2.00205636221718
N          -0.56018265871541   -1.14538214481863   -0.82248190431442
H           0.34863356193271   -1.13923743050261   -1.31799464918388
H          -1.00852460468635   -0.18726129600208   -0.86819861164210
H          -1.22846527235666   -1.80764803223048   -1.21334948791256
H          -0.32933192205496   -1.33689307078709    0.19670051248389
