    26
        -50.44584631  Gyration_radius:  2.47500452018 Dipole_moment: 6.189
 S          -1.86606900934055    1.31884458663836   -0.57415555341491
O          -2.18796455506018    0.95756552450749    0.78746478733884
O          -2.78390871192950    2.12552900822983   -1.28747653746138
O          -0.45399459002980    1.97025305817203   -0.57837285583592
O          -1.59070393031583   -0.00005381245086   -1.35335093033110
H          -1.91849346041988   -0.77201076262976   -0.71873255633077
H          -0.19436075750363    2.09326802752092    0.40374723702467
O          -2.23762426515368   -1.69332408600580    0.34914326336272
H          -2.46387517012415   -0.99811085669941    0.98298709320504
O           1.69116023189684   -0.07826949945652    1.69479220286193
H           2.49261568964128   -0.14090797457813    2.21585345666793
O          -0.01496944409619    1.99556913421918    1.90864586171126
H           0.60176054401182    1.23749973339233    1.99829701953440
H          -0.91185468309213    1.63509183757905    1.99224951508801
O           0.59051493755599   -1.53956520399413   -2.01297272244244
H          -0.14277941334450   -0.90559698986127   -1.92572429416087
H           0.28428000281227   -2.22443003288840   -2.61032692574610
O           0.30727884242347   -2.23644703250589    0.67806385439824
H          -1.32943834414226   -2.02543141785141    0.59118598780259
H           0.56874402950439   -2.11074760976140   -0.24975269881761
H           0.76001645108836   -1.53481103091651    1.17611594329642
N           2.22075529449411    0.61698509877181   -0.79073191275183
H           3.09617375554966    1.02778913370832   -1.08890285491002
H           1.96455304252766    0.19322956245705    0.76181236798437
H           1.47882042267520    1.28475022367319   -0.97981840798314
H           2.03936309035598   -0.19666860929778   -1.37004034011395
