    26
        -50.46051400  Gyration_radius:  2.59585213419 Dipole_moment: 3.858
 S          -1.55314601179169   -0.39216180549368    1.72607579608733
O          -1.70433248150274    0.15736926839602    0.37460427946881
O          -2.01219862979210    0.46351675676770    2.77468126984350
O          -2.53370806839030   -1.67028766784735    1.71118705199219
O          -0.21730742203246   -0.93530143798917    1.91519806537825
H          -1.52793496718087   -1.14041413622619   -0.64704763993222
H          -2.97520219065043   -1.63706443938808    2.55469997123123
O          -1.23069857841898   -1.87271967789631   -1.23306737429890
H          -1.64774402628967   -2.66022426153603   -0.88070995256301
O           1.34545479864091    1.63973562736075   -0.93862144912147
H           1.04062333517734    2.00737452190101   -0.09105187547529
O          -0.02771663080218    2.04841048580193    1.37723258853082
H          -0.13818980018049    2.10343062744337    2.32832550643590
H          -0.74058142878938    1.46632729991569    1.07832156645287
O           3.66710506030283   -0.06166223389499   -1.01443894184414
H           3.10608696091549    0.72162208027371   -1.10158623719738
H           4.57326921730899    0.24387239277066   -1.06406499980978
O          -1.03324802417223    1.16384889057187   -2.09423675797883
H           0.56005600820233    1.67952281300717   -1.52352305398884
H          -1.14084724771209    0.34682684128132   -2.58714757208560
H          -1.43236241517277    0.99315133598058   -1.22681685840033
N           1.14145852133429   -0.95443439928308   -0.29580384793102
H           1.20818909805719    0.06182596634155   -0.58505036208587
H           2.08414304555111   -1.33902579720229   -0.33353947290731
H           0.71943266762646   -0.97740455027559    0.67895882029552
H           0.46939920973498   -1.45613450071797   -0.90257848007050
