    26
        -50.45147869  Gyration_radius:  2.46485331821 Dipole_moment: 6.100
 S          -2.02501256678207   -0.81226449543572   -0.99428641747529
O          -1.77421742126152   -0.15585866664730    0.27181057767915
O          -3.31183473985272   -0.61758646375439   -1.55111479723338
O          -0.90749402746705   -0.37418891208563   -1.98505119832390
O          -1.70972501320460   -2.30954766246395   -0.85408505638086
H          -0.73736662069979   -2.33736741434080   -0.60412258586172
H          -0.65378805477106    0.59458757701220   -1.87528767949711
O           0.80041420146648   -2.26857621269935   -0.28986557796817
H           1.22825653269076   -2.85185259113227   -0.91903636368078
O           1.31446522395658    0.99787191103849    2.20279851536356
H           1.49347152739527    1.27283693734775    3.10276111733011
O          -0.70678237277237    2.25498164467632    0.85323985054475
H          -1.29146119122634    1.47900762790754    0.81403246432118
H           0.07064840570636    1.95375871851560    1.36336748202302
O          -0.18576970924023    2.06644324364165   -1.66550129222320
H          -0.34368797040788    2.23674097542559   -0.68373268578270
H          -0.76985923855281    2.66237032266287   -2.13782339384261
O          -0.14798038308322   -1.20329405707172    2.14468889053301
H           0.79593797055514    0.15355355649690    2.26771247117919
H          -0.86442029852987   -0.85185106161737    1.58349222264376
H           0.30322760161854   -1.85175466557094    1.59196937644538
N           1.94289523872653    0.07382547738626   -0.55175729150483
H           2.91231319822973    0.04545743784237   -0.84193249918895
H           1.90949912170677    0.49776186282269    0.37169198494975
H           1.44530803428833    0.68840827246579   -1.18565428126299
H           1.21296253151432   -1.34346336242310   -0.42831385278033
