    26
        -50.45192234  Gyration_radius:  2.44664630182 Dipole_moment: 7.012
 S          -0.24301832250279    2.04241482583251   -0.58236711401179
O          -0.87270246300693    1.91526062186451    0.70945889838788
O           0.92265499518009    2.85911208962385   -0.61714882335645
O           0.13878987611025    0.60082118698363   -1.07254143218933
O          -1.26018973201269    2.46733611784656   -1.63221818183187
H          -1.89640384885179    1.67006792693100   -1.77950634908446
H           1.06327301170319    0.45308645577603   -0.69058334720680
O          -0.27994457153794   -1.88496960030538    1.35683697748876
H          -0.32937089025711   -2.68036699549795    1.88877505035692
O           2.39505340239125    0.61234729617072    0.10781554581622
H           2.49275674280710    1.55705772171552   -0.06593624115848
O          -2.43488251345275   -0.26927536725712    0.63640687032588
H          -2.01673629084291    0.58413818633458    0.84648014119923
H          -1.76887545801785   -0.93854116597713    0.86412989278333
O          -2.58880134025492    0.33504702597595   -1.89575372912766
H          -1.92208735369033   -0.23606502744850   -2.28552186557343
H          -2.67743063605011    0.04025819859193   -0.94507538171890
O           0.86969166838447    0.47636954801514    2.21562079709771
H           0.22321717073577    1.13377498373053    1.90884924834704
H           0.43331271586514   -0.38561137179657    2.09110076113746
H           1.99052538343079    0.54971804986012    1.01925092413042
N           1.64100379970082   -2.23600248142977   -0.49410040472642
H           1.26148560093199   -2.06628801679124   -1.41732542861616
H           2.26907578717863   -1.46684657137000   -0.28384385324698
H           0.39944169549648   -2.04689174544428    0.64908181803132
H           2.19016157055113   -3.08595191193765   -0.53188478326188
