    26
        -50.44460637  Gyration_radius:  2.51369546479 Dipole_moment: 6.591
 S          -0.80683892243338    2.38495852466152    0.32089080622662
O          -0.91422334143530    1.99398598224472   -1.05649410520075
O          -1.73057744676389    3.34104141274711    0.81027989386993
O          -0.88213270552703    1.07263690316415    1.18901834618498
O           0.63527320873559    2.84762195235657    0.62399920653476
H           1.22829496328112    2.13884750255312    0.24993700070639
H          -1.40025402508742    0.36981566297805    0.70094153302936
O           2.14964237615756    0.88477256409193   -0.13619132495875
H           3.07835113085499    1.12110548580264   -0.10080631306660
O          -2.19224522148563   -0.78345842697608   -0.06271711888702
H          -3.13448720707137   -0.61601375677642   -0.01301545294453
O          -0.15019695366833   -2.58360091944611    0.35331963983056
H          -0.93351345630724   -2.00696052813655    0.31559262549784
H          -0.41841302707314   -3.43168001084891   -0.00466897233359
O           1.06093624657927   -1.15580032052638   -1.74778814810037
H           1.46260855421163   -0.36153755992744   -1.36718626497321
H           0.79548227920578   -1.70632294897234   -0.99350168147875
O          -1.37664086259747   -0.26659630982587   -2.41469862887363
H          -1.92175565581087   -0.61979455454012   -1.04018816851579
H          -1.25386413350509    0.67873053648358   -2.22206881809067
H          -0.46766916899161   -0.64392015069956   -2.38687254388436
N           1.45334563669855   -0.60516251603603    1.89493042033630
H           2.01287615120051   -0.79677595850186    2.71566143603289
H           1.95907722499011    0.28558371447112    0.66227212046546
H           1.09989753009683   -1.48654823626142    1.53545691106169
H           0.64702684574634   -0.05492807407930    2.17389759153117
