    26
        -50.45909905  Gyration_radius:  2.47758159592 Dipole_moment: 8.426
 S           2.22132755219630   -1.09619183045132   -0.06212177281705
O           1.31004549751363   -2.17402941697834    0.36444276041121
O           3.35283944344284   -1.53756578362113   -0.80023705506845
O           1.42373669711662   -0.06216748696346   -0.76579102708711
O           2.71117821294505   -0.40219703805845    1.25897325154272
H           1.88969807401273   -0.09755988161735    1.68415189188969
H           0.27645905492218   -0.25172090559763   -1.75991691277379
O          -0.54242818685993   -0.34327239761304   -2.34250945524682
H          -0.21260018181686   -0.36000328757421   -3.24180610992147
O           0.51801725746190    0.80437138601761    2.31281355038665
H           0.80377269410597    1.23589881248792    3.11926827897630
O          -1.74550253902029    1.68038014350868   -0.98957145391712
H          -1.34250541504927    0.98511640459961   -1.55208644492139
H          -2.39147485775318    2.14001945814939   -1.52682880291425
O          -1.94359164665353    0.13969467384759    1.31752921638942
H          -1.98162096528719    0.81548901935332    0.61989375897561
H          -1.13537797517662    0.33107757604481    1.82798821352489
O           0.73495879304026    2.28273923350583    0.19891168549295
H          -0.14579160962675    2.33858681882300   -0.19889450179706
H           0.61339848196579    1.47924800072597    1.57517790739614
H           1.15897754544746    1.51554139861689   -0.24680831028568
N          -1.14570136148665   -1.90143275371094   -0.16418633152978
H          -0.07625083308417   -2.03957909117661    0.09224032768770
H          -1.54144861490460   -1.16378025134509    0.48764600485896
H          -1.16623112047920   -1.53880462267218   -1.12610842723056
H          -1.64388399697393   -2.77985817830226   -0.08217023200318
