    26
        -50.45996692  Gyration_radius:  2.52866165166 Dipole_moment: 4.315
 S          -0.88734384913942   -0.82952395082113    1.96548423340549
O          -0.99164487399447   -2.20960832557159    1.54497594395237
O           0.36314073483783   -0.54207533259385    2.66733965729567
O          -1.11933037697120    0.12913691923444    0.90645273016434
O          -2.05333544652985   -0.60451019869147    3.02788321973129
H          -1.93468057622923   -1.33744483731941    3.62414738463466
H          -1.76930379521494   -0.07223191503228   -0.54834867153643
O           0.47723806461089    2.89738617925479   -0.33737040499661
H           0.94107802421989    3.64691763936331   -0.71270338272245
O          -2.08371520570348   -0.22293241863838   -1.47595962283380
H          -2.99194543802272    0.07993826922150   -1.50117313745717
O           1.78872454579353   -0.78591543292923   -1.19530907671715
H           2.51610152531056   -1.36162943105491   -1.43401014306900
O           0.09712679510462    1.19689907735775   -2.31783953717352
H          -0.75107954267939    0.74383877657087   -2.15453009292041
H           0.21823852375417    2.32128992449109   -1.10353146867396
H           0.77306703594352    0.53363469471061   -2.11943176198459
O          -0.28113193810759   -2.30003547627143   -0.99280243936853
H          -0.52563173709351   -2.38332484679499   -0.04391395276728
H          -1.00194650029274   -1.79061286912704   -1.39093415380071
H           0.98315275955677   -1.39103471424786   -1.10763692955090
N           1.66370211123612    0.86808785464316    0.94601601826428
H           2.56242419018943    1.15903026280930    1.31701373620099
H           1.11897400888641    1.69706469485736    0.59577323382628
H           1.78438439038389    0.21161440080392    0.14069648350749
H           1.10373654016144    0.34604105575449    1.69971212457651
