    26
        -50.45316411  Gyration_radius:  2.76357317377 Dipole_moment: 6.493
 S           1.95599230780390   -0.48242666756307   -2.26568810887337
O           2.66780743270485    0.04170489568943   -1.09842749928501
O           2.54054805625933   -0.16236868816235   -3.52578410542170
O           2.07807872751478   -2.09644339848896   -2.12523807854819
O           0.52013741297056   -0.24043400671875   -2.13709268092320
H          -0.00464270126579   -1.45883519700559   -1.18423468563207
H           2.79417284000040   -2.26898795000227   -2.72730987457239
O          -0.18630776881897   -2.09343338680024   -0.44637363911583
H           0.31249912169977   -2.87897329081094   -0.67817483909371
O          -1.00449563841408    1.39049236856420   -0.64561792723500
H          -0.55340524705031    0.99910900834291   -1.41575101839334
O          -1.03755019511401    0.31536725801239    2.78936629748343
H          -1.50376814844288    0.28650881554790    3.62535727571156
O          -2.36265306494850   -0.59828745841696    0.50262767774327
H          -1.69152771786602    0.73179388460198   -0.38535723043104
H          -1.85923547786311   -1.33925763856367    0.13994786914626
H          -1.98695994259177   -0.42678968724081    1.38316322285732
O          -1.13303668041343    2.78741848216075    1.68678136069365
H          -1.89693048099826    3.36376565943072    1.73775214411541
H          -1.06784443051634    1.24796727882519    2.48692408306511
H          -1.06128298450618    2.51479358381391    0.75484498607997
N           0.90777573695544    0.07908202990149    0.74397190628625
H           1.75005964867012    0.11291881093880    0.06447793084419
H           0.50129372663062   -0.87024284992754    0.65214478101116
H           1.12574454195402    0.29914292796890    1.71068574340151
H           0.19553094562668    0.74641524591458    0.35700439904357
