    26
        -50.45319302  Gyration_radius:  2.55923697987 Dipole_moment: 7.124
 S           2.23179166667524   -1.35245241089712   -0.22240868297361
O           2.12795720622676   -1.65636392421351   -1.64747982186101
O           3.30388598197431   -1.95972890660974    0.48839535328430
O           2.48677684552870    0.24037372279253   -0.24122522927365
O           0.91956039400193   -1.49703763021013    0.42498423233168
H          -0.52854109710184   -1.62843319948133   -0.23175586482440
H           2.70337850415813    0.47262081983123    0.66045723193722
O          -1.37422838642925   -1.62916809526255   -0.75932654462513
H          -1.68140162743368   -2.53636531973107   -0.76062922433026
O          -1.86464879359737    0.60511402048827    2.77320672092130
H          -1.98590645584120    1.21410683793274    3.50187762198386
O          -0.19533796249872    1.95289413031138   -0.45919961640145
H          -0.33184761857364    2.89017673039165   -0.59817513050790
O          -2.41997988451228    0.78257021467276    0.14966922270361
H          -2.38992118289655    0.74043970854202    1.12862255327728
H          -1.09389586742728    1.56024086521179   -0.22463091320543
H          -2.24935053268440   -0.12736424241533   -0.14184068976091
O           0.67182394125019    0.67894467321741    1.91397291472701
H          -0.89596570236233    0.57635689757896    2.59116944288098
H           0.74974557698530   -0.21170963710368    1.51630558168574
H           0.52847948915609    1.26865366589661    1.15737613498623
N           0.24971860524169   -0.05558527978693   -2.22955635517825
H           1.12076909998386   -0.69961442420228   -2.04491571275904
H           0.29299268408228    0.77867645086301   -1.60411982078252
H           0.19141376933958    0.21751437924309   -3.20474890930259
H          -0.56726865324822   -0.62486004705862   -1.93602448493447
