    26
        -50.45319306  Gyration_radius:  2.55914628601 Dipole_moment: 7.131
 S          -1.70938637914429   -1.89073452243556   -0.60275113197870
O          -1.29688336970380   -2.85116798946410    0.41771272951083
O          -2.67419262535006   -2.33295512584931   -1.54992640356031
O          -2.38487030339096   -0.72898609046768    0.28975980397592
O          -0.53073191678421   -1.24436539688947   -1.19845819905066
H           0.98446784748553   -1.23559460327480   -0.69886573629406
H          -2.79870771355455   -0.13681230384961   -0.33628530036181
O           1.87229005893905   -1.24621420314475   -0.24593579251870
H           2.41437645255021   -1.85714807473003   -0.74612022873890
O           1.15310566915681    2.53644714875128   -1.94168316527310
H           0.98328246509893    3.44054838088557   -2.20682004641677
O          -0.27578248729321    1.35414333201179    1.46706378195296
H          -0.37946092882909    2.05895454248429    2.10653996606056
O           2.05469075524118    1.46308277918554    0.35124485872632
H           1.87953361313080    1.93873664444094   -0.48789197664833
H           0.64544709592494    1.45546286283533    1.06989737938420
H           2.18861385070589    0.53852673179083    0.08750077789467
O          -1.13292683729450    1.33421655060783   -1.22968295601449
H          -1.03637605062269    1.44314685195459   -0.27077092096060
H           0.27209086762506    2.10982354156291   -1.82321582566691
H          -0.89843321504290    0.39824109829187   -1.39255913404355
N           0.13982357547717   -1.30386039603193    1.82139342448214
H          -0.23055368149004   -0.32991814789821    1.76098171889006
H           0.27695916853542   -1.58682927780032    2.78582502804854
H          -0.53949143289461   -1.98932811637705    1.29555220210579
H           1.02311552152373   -1.33741622659948    1.27749514649358
