    26
        -50.45708427  Gyration_radius:  2.51496156483 Dipole_moment: 8.099
 S          -1.84125499560211   -1.30124926415672    0.06854085236896
O          -1.50151953910113   -1.36367103936600    1.49466365585998
O          -1.54443374686940   -0.01585958791895   -0.50642676700181
O          -1.23711925832418   -2.40836749289465   -0.65793771502180
O          -3.40644110744525   -1.50301203312607   -0.01453592481181
H          -3.51974647477031   -2.37254822043563    0.35561323358181
H           0.26555260287953   -2.03151137666417   -0.89947349731299
O           1.23992441943871   -1.80903390788677   -0.90804649059433
H           1.66430629141352   -2.50045133781398   -1.41926986978652
O          -0.54404679111353    1.94187903515585   -2.14385276124251
H          -1.03626651089740    1.14607436478887   -1.89358121327467
O           1.59039605931298    1.65638693712135    1.13108053273387
H           2.33259594348109    2.21579794060085    1.36126120986091
O           1.76859070006150    0.94523865339226   -1.33123700606568
H           1.58136518719390   -0.00460145730677   -1.34190369100608
H           0.98016777856479    1.37127209310464   -1.75563501545343
H           1.68372735116165    1.45003169614921    0.14345138875762
O          -1.07924172261855    2.51280621816461    0.52906527333917
H          -1.42539347317477    1.63330868905867    0.31284317682981
H          -0.20259236352471    2.35700229078880    0.90219180891716
H          -0.73707377574384    2.55749449948907   -1.41737058135644
N           1.01471238018247   -0.89737310458228    1.61955554307610
H           1.46478957898687   -1.34313926271147    2.41185549750909
H           1.31816758464802   -1.31986349145466    0.71748451435216
H          -0.05847917247800   -1.04773739848637    1.65628631728163
H           1.22931306434092    0.13112654698513    1.58537750846248
