    26
        -50.46911919  Gyration_radius:  2.40721855538 Dipole_moment: 4.347
 S          -0.35296060372798   -0.92936770870426   -1.45915374792059
O          -1.26991044384819   -0.88584391760821   -2.56696353691090
O           0.81085831579030   -1.78472099659405   -1.63699045087420
O           0.28685554884118    0.52109712529780   -1.30042122632856
O          -1.02747103328825   -1.19026868342665   -0.18563425949750
H          -0.32579289209225   -1.23241539768038    1.18467070821782
H          -0.44005714899836    1.08515386908006   -0.94279001307110
O           0.19184488501355   -1.23431896054297    2.04605481320264
H          -0.28176736900757   -1.81848487545803    2.63918582276197
O          -1.69028252355535    1.90705432160287   -0.27622760390239
H          -1.90657839973408    2.72217894659780   -0.73323076309072
O           2.43199416150244    1.41209580279656    0.19666852252501
H           1.95680336986059    1.45814552076916   -0.64252860497223
O           0.28948690736478    1.55695833852944    1.78152467388115
H           1.74565549010049    1.61846650961042    0.87639832680206
H          -0.46827770027616    1.74315996086367    1.21107984459982
H           0.20361255689169    0.62848056913698    2.04753715188544
O          -3.27670036923393    0.05291792807852   -1.16895884099580
H          -3.25853415470540   -0.61911077678597   -0.48119244281464
H          -2.39118185711966    1.24253350630871   -0.54440803494557
H          -2.64752515767931   -0.29132884309849   -1.84558623945223
N           2.31126110904256   -1.20804487198456    0.37080648468305
H           3.16897378461611   -1.74433683874733    0.44128503518010
H           2.50291978965699   -0.15647790124811    0.31006529021614
H           1.74657105885553   -1.48909613228617   -0.50746265684359
H           1.69020265572596   -1.36442651450305    1.18627171767652
