    26
        -50.44980674  Gyration_radius:  2.56464573499 Dipole_moment: 6.679
 S           0.09900676800607   -0.53800568704841   -2.64811648188168
O          -0.05122051121954   -1.19874343210796   -1.33063327084814
O           0.36444078467830   -1.44620246143311   -3.71510548478842
O          -1.35746602775797    0.07314865458804   -2.93947468305123
O           0.97596945408062    0.60593184557179   -2.51492472290334
H           0.25388480766946    1.65108288401272   -1.60983759021263
H          -1.69476492205236   -0.54602198391847   -3.57749186196786
O           1.78264044506208   -0.83289174678957    0.32115489483229
H           1.10140599591426   -0.98349757350055   -0.44480453330428
O          -0.19081556415073    2.29128537666954   -0.98492451453624
H          -0.17266959798955    3.13957682494608   -1.42969890834212
O          -0.90341162792893    0.43887895054506    2.46477396772024
H          -1.53622435251984    0.93670175935310    2.98306730231329
O           1.24323037791625    1.49052700942978    1.14107445001356
H           1.67751069758757    0.16623447085690    0.60884377193524
H           0.78497577969091    1.91472979555389    0.38413177013296
H           0.53781828080023    1.23453232426462    1.76662078634176
O          -1.79952045676884    0.28071531555366    0.02666813655583
H          -1.27961721760062   -0.37531715063988   -0.48026471693817
H          -1.31153768016396    0.33359657062472    1.55631151816792
H          -1.55199136165390    1.12873093392777   -0.37244249334036
N           0.58279081543651   -2.01119615153160    2.23403774101801
H           1.36612591600651   -1.38319406196408    1.13233666681559
H          -0.01545448844084   -2.73086450703889    1.84950263521946
H           1.09991614215767   -2.39347683696206    3.01409977697963
H          -0.00502244657638   -1.24626112265394    2.56509583418662
