    26
        -50.44980674  Gyration_radius:  2.5646461211 Dipole_moment: 6.680
 S          -1.40728895117960   -1.69870421961119   -1.56398457032837
O          -1.03394594663522   -1.45579483780516   -0.15101834041753
O          -1.97141622798813   -2.98852297952946   -1.79166896344320
O          -2.58869177984538   -0.64499570733239   -1.83548053305622
O          -0.31983781928959   -1.28701628321841   -2.42614165631575
H          -0.17738322028295    0.26097776738018   -2.29833925468035
H          -3.35268091442962   -1.21030505691766   -1.80587988796157
O           1.40593246008765   -1.36593898646454    0.36272881073624
H           0.41817220328353   -1.48260211975081    0.07257212484801
O          -0.05600940856526    1.24419703979014   -2.16909880823916
H          -0.04504575614317    1.62007738820327   -3.05018171095328
O           0.62890253434813    1.96188067632025    1.68543221556119
H           0.50474434587111    2.89208609585859    1.87569937625893
O           1.99104847296115    0.94714160758322   -0.45483748391789
H           1.66371861094908    1.43490303337912    0.32580142144207
H           1.72852954117946   -0.46855776905176   -0.06481724071005
H           1.34169203871463    1.12366110116285   -1.16903051242553
O          -1.38788159347126    1.15162765716487    0.25407496847585
H          -1.39195480526914    0.17444966765681    0.20201706075719
H          -0.19564899014429    1.66616606968208    1.20005537888160
H          -1.16547188426989    1.42929178767730   -0.64764303972880
N           1.08619280807516   -0.65397575711896    2.78729725457992
H           1.33259729700876   -1.14794322351768    1.40258470029912
H           1.80689487260341   -0.82078867722079    3.47633627384696
H           0.97365481971897    0.35139395270684    2.65776379436719
H           0.21117726253707   -1.03270824677135    3.12575862167692
