    26
        -50.45723589  Gyration_radius:  2.49126855508 Dipole_moment: 8.472
 S          -1.13031480334096   -1.56005304854180   -1.41559944191281
O          -1.22752920855014   -1.38564946890106    0.06636603241180
O          -2.17058108846964   -2.36812992971779   -1.94214421947016
O          -0.96299628406291   -0.25207233258178   -2.04459030638010
O           0.24404532188052   -2.32607339233227   -1.61165078779147
H           0.97166584491990   -1.70724994380493   -1.41660792123275
H          -2.20479019913624    0.84754335918140   -1.11666450871149
O           2.31009962026155   -0.71099774497127   -0.85661524500294
H           3.07666852210891   -0.80239779525955   -1.42339934941302
O          -2.42224228666765    0.94236521141065   -0.17505638671891
H          -2.19611486826993    0.05266767906301    0.15990281615672
O           0.32839704370788    0.98877917799596    2.80788342360332
H          -0.48669937229448    0.89825690580701    3.30531593521677
O           0.98815391234074    1.38488567310525   -1.46388396913927
H           0.23757722291661    0.84897595492883   -1.81752926890050
H           0.62334317571202    1.84854239356223   -0.69148725802202
H           1.88245245662963    0.17606564081939   -1.09420137358914
O          -0.45321095411761    2.40092528347405    0.67980399455999
H          -1.25140327370327    1.87028724565174    0.37313365591685
H           0.12181528458691    1.59135246903900    2.05797010924536
H          -0.72286947845303    3.32013932366869    0.67428783313452
N           0.91400264384096   -1.22115261989843    1.40963196503110
H           1.10193274642534   -2.05751715315381    1.95085180639191
H           1.66278175450562   -1.05581842687668    0.71917472412450
H          -0.02227053397550   -1.34133564906088    0.83526580566467
H           0.78808679117527   -0.38233881261814    2.02984192482346
