    26
        -50.46347345  Gyration_radius:  2.63609686037 Dipole_moment: 7.104
 S          -0.62340899591988    0.36804919024850    0.21750674170989
O          -1.91886687250535    0.87649724894549   -0.15885696530853
O           0.32602131693334    0.44470902205260   -1.00782519569510
O           0.04383714979434    1.16582455277281    1.25160831251191
O          -0.68178699467439   -1.04476378733281    0.63239876334224
O          -2.54867603912088   -1.72159828214757   -1.15918837134445
H          -1.88902013575190   -1.63671015295682   -0.44630573400019
H          -3.16028951995289   -0.99357293673304   -1.01417787410004
O           3.41508442860163   -0.78753825289445    1.89478026066374
H           4.15054608503063   -0.47858179358150    2.42599557609435
H           3.20862694576100   -0.05375162670281    1.25784396105972
O           2.57922130622597    1.21631075570265    0.40414395833178
H           1.66428186688705    1.35324830343896    0.72631884651988
H           2.46544101879895    1.00494582103688   -0.52692362058693
O          -2.49563835341822    1.67699471598926   -2.62902863738375
H          -2.20093655972576    2.58394447548679   -2.72054316984181
H          -2.38555386960656    1.44939737055458   -1.68181005687832
O          -0.96736627801435   -0.52114838207243   -2.94379447765165
H          -1.53744588315950    0.25221454854009   -3.12917384175153
H          -0.14324274076174    0.02387432223179   -1.82536061120867
H          -1.55262690283243   -1.15241293355116   -2.46581896162945
N           0.86781320339279   -0.83119064086824    2.62869561805362
H           0.58476716343537   -1.13414248695674    3.55388727075176
H           1.89774747774431   -0.96717436801783    2.44689326354334
H           0.27977501086107   -1.26554657333484    1.85172854011074
H           0.62169615197866    0.17212188014911    2.41700643468666
