    26
        -50.46347337  Gyration_radius:  2.63618049942 Dipole_moment: 7.106
 S          -0.01156045162369    0.60077368103860    0.45756169206207
O           1.11964935497169    1.28048264847761   -0.18215224884411
O           0.46239997135034   -0.59434543843156    1.17778415317804
O          -0.80285772499485    1.46302699817352    1.29952339945683
O          -0.88745571411768    0.10398563891698   -0.72337952471454
O           2.90555185260568   -1.60211550293685   -2.20608439760361
H           2.18631419525985   -0.97421648828233   -2.48040637628317
H           3.61467512008933   -1.48679041355075   -2.84040565753393
O           1.09375525276850    0.25645322128921   -2.65161802735768
H           0.18997272759969   -0.06709508939314   -2.70629012390279
H           1.10791952677694    0.77077191791215   -1.81794560313005
O          -1.76567817122553   -0.87060794071429    2.63141998647205
H          -0.89210361739801   -0.89961775393459    2.19945486878024
H          -1.86646260371501    0.04187633730166    2.91828766075457
O          -3.37959955878383    1.95054075204446    0.85488079215338
H          -2.43116384704156    1.87617304558250    1.09160222932698
H          -3.43797646792086    2.65715389203608    0.21057385426468
O          -3.05618220974193   -0.66820919307709    0.30324227793347
H          -1.77883650302276   -0.26156831680879   -0.35252927482192
H          -2.73898009318872   -0.94741102766295    1.19256537084843
H          -3.46084971392253    0.21048632079511    0.45003163421133
N           2.81960124321641   -0.58894679843019    0.24237286402553
H           2.97408717766442   -1.11775521172560   -0.65697285401810
H           2.47468350405072    0.37862170083672    0.00498308451730
H           1.93040214425492   -0.91657033532543    0.73286439996600
H           3.63069458609844   -0.59509664416273    0.85063582026701
