    26
        -50.45124306  Gyration_radius:  2.85065096134 Dipole_moment: 7.272
 S          -0.15957982327786   -3.02471864798998   -0.55424774853891
O           0.78382688485490   -2.55953142753779    0.45672292859593
O          -0.44774857760241   -4.42250582273304   -0.54436521628679
O          -1.58471003396773   -2.32819576857794   -0.10387050609263
O           0.11504172720237   -2.43186143828232   -1.85362287426794
H           0.18586044060694   -0.93088647045142   -2.20388076644872
H          -2.07392943407688   -3.13097001703455    0.04216489320961
O           0.24816520736838    0.06315838025453   -2.33703570463062
H           0.62041024898076    0.18568981358301   -3.21081972428614
O           2.72486859504264    1.80489727006561    1.34166166059387
H           3.41124553014888    2.30564192681384    0.89979231442327
O          -1.38085708139768    1.13282125290425    1.24010011408411
H          -1.90994611708709    0.67921340686013    1.89769625399960
O          -2.18406254672415    0.20773821917003   -1.05656114632065
H          -2.13701723386771   -0.73237590496988   -0.81981048281376
H          -1.78490500771795    0.90348402770253    0.35480793914087
H          -1.44929421953520    0.34305417800462   -1.67808529598067
O           0.41702281683413    3.23294610736582    1.52536685217274
H           1.96456873391765    2.41039588998564    1.45592387389704
H          -0.29337328935152    2.58495308280870    1.38198367119577
H           0.17773956787049    3.73192516107207    2.30774752528502
N           0.96642302246317   -0.00002229671004    0.29605872583397
H           0.13254816538840    0.37709040169113    0.78019054963221
H           0.87354983023925    0.20433207265867   -0.71371486042681
H           1.80676658801459    0.46179806570292    0.68589090755277
H           0.97738599550304   -1.06807148251805    0.40990610647827
