    26
        -50.45124343  Gyration_radius:  2.85031874397 Dipole_moment: 7.280
 S          -1.00481935869061   -2.59153409292649    1.32416955801439
O           0.14739259511935   -1.92033981005521    1.91594563272935
O          -1.64289875810823   -3.57393665623955    2.13953387549793
O          -2.13074122649168   -1.39289526149820    1.20231065319398
O          -0.75276277189253   -2.96560981998220   -0.05852054489480
H          -0.34136358105883   -2.03741567147591   -1.22058387747161
H          -2.78847901387130   -1.78330117983182    1.76805268074544
O          -0.04104132326050   -1.37075962057340   -1.90972209010133
H           0.23674140548315   -1.88673924659410   -2.66715526399000
O           3.24620099276051    1.38508109358319    0.16479804719858
H           3.97233540573578    1.31489739019672   -0.45582553982484
O          -0.87278400519191    1.97361896457347    0.26251069088951
H          -1.41323156365597    2.15347770563612    1.03294150743881
O           1.42821171366060    3.23842747564859   -0.64831309832836
H           2.68962288855310    2.13134391203756   -0.13690905559364
H           0.56237891320204    2.86052316726834   -0.41888258089980
H           1.42413819718311    4.14286553165408   -0.33173531422342
O          -2.17130604306727    0.16845823806987   -1.09052171845114
H          -1.51118740985413   -0.29446159762094   -1.63311482856033
H          -2.33927206936033   -0.42854671131605   -0.34386368757585
H          -1.43088088948163    1.40222114574301   -0.33882845093621
N           0.96299354494814   -0.10319860646749    0.29016468558063
H           0.32258669059787    0.70077255628879    0.41505632054878
H           1.93619016894930    0.23880885261967    0.37738763704077
H           0.71200296015927   -0.85895861444886    1.01092110227747
H           0.79997252770873   -0.50279915396317   -0.64981634040579
