    26
        -50.44429075  Gyration_radius:  2.6214078791 Dipole_moment: 6.340
 S          -2.07206754838654   -1.58950507915763    1.08127947555253
O          -1.13688591050528   -1.61123782687481   -0.02423824192835
O          -2.52569189024405   -2.84113176634088    1.55422117612889
O          -1.42003182101276   -0.74818923188708    2.23487608948718
O          -3.26895693554297   -0.70037775563493    0.70835272618036
H          -2.88836557050542    0.16778383177399    0.37613252992291
H          -0.44875567306059   -0.80463634643505    2.18224977544761
O           1.04650220621057   -0.89816095943850    1.31235466701874
H           0.48942595936221   -1.30407952166046    0.62769129790304
O          -2.17530230582828    1.42888233878679   -0.24057635133603
H          -2.83271905620737    2.03073755033072   -0.59470314199607
O           1.51312003238170    1.26954974689269   -1.64679466343253
H           1.65832310670635    2.09533380071908   -2.11021653182610
O          -0.93534895955337    0.14185908265044   -2.08924807381695
H          -0.96035521408628   -0.67639159744670   -1.56539259642907
H          -1.71919944872268    0.99531459309666   -1.03488064894756
H          -0.00596426852508    0.44824381445156   -2.06851639488041
O           0.48209032840073    1.71159220554620    0.74161119693013
H          -0.47852823200207    1.72596772926367    0.63624961889178
H           0.70310490354192    0.83964527863446    1.12497685423150
H           1.18783132598977    1.51299355628485   -0.73935223040076
N           3.27890678795213   -0.64575839701424   -0.15209087308718
H           3.61991340223886   -1.48239524640327   -0.60764622772564
H           2.86015535867110   -0.04909265641469   -0.86137750798210
H           1.95661921856688   -0.86132580236492    0.91451852564417
H           4.07218020412631   -0.15562134133351    0.24051954052621
