    26
        -50.46596120  Gyration_radius:  2.4677950389 Dipole_moment: 2.851
 S          -1.63742027145450   -0.59430694328900   -1.32496287728585
O          -1.08332203108028    0.69463058745809   -1.69719155318036
O          -0.68055945830006   -1.68014617543311   -1.40044378728227
O          -2.30560352833595   -0.52949086782238   -0.03153172718338
O          -2.75307653632104   -0.92255831744071   -2.40019416334275
H          -3.22048736458336   -0.09608077754081   -2.45537161265211
H          -1.79725173200901    0.95717767855369    0.57943499065851
O           1.66527762864353   -0.97221066344382    1.78559168813677
H           2.06527108715994   -1.49599311204806    2.48071733688591
O           1.48887657465113    1.41932482880325   -1.50899731699104
H           0.53921602435575    1.30050915575380   -1.71515158431216
O          -1.43048247856562    1.79591859222266    0.92681609889163
H          -1.48577394148193    2.40857171473445    0.19024456538846
O           1.28691850115309    1.78002054080146    1.11657900528586
H           1.53934424061115    0.92560520198350    1.48877445530940
H           1.50724132203685    1.75890177278791   -0.58202610945015
H           0.31160190922884    1.82647750419102    1.17600995962093
O          -0.92085409311626   -1.02465224642029    2.16993503724300
H          -1.44458213631068   -1.04003726624822    1.34063542920412
H           0.67999368747333   -1.04149085634684    1.91978832796134
H          -1.18217551593237   -0.20727584693954    2.60394257279839
N           1.80261264682189   -1.07415258593922   -0.93531022150406
H           1.90983582012080   -1.12107700503349    0.09581130109308
H           2.50192684250216   -1.63196279677943   -1.41112512182658
H           0.82133394047941   -1.40635765476799   -1.16967246970311
H           1.82213886225382   -0.02934448180039   -1.24230223376158
