    26
        -50.43832373  Gyration_radius:  2.67228687061 Dipole_moment: 8.969
 S          -0.90574421166130   -2.66680880550451   -0.70904215564375
O           0.17454924379374   -2.65147053163682   -1.65648300765734
O          -1.46707258464832   -3.91177133089726   -0.33639884521557
O          -0.41843237355727   -1.88747283389268    0.55815696934270
O          -2.05187973970192   -1.74736662889223   -1.22708900068364
H          -1.64292469606311   -0.90173901835677   -1.52743618845401
H           0.56335305123704   -1.67416571860957    0.37407229331459
O           1.97528676904141   -1.40786647859393   -0.11753342534019
H           1.80628644066693   -1.97481791002268   -0.88642478416388
O          -1.08602414495234    0.58974263165886   -1.99546343156130
H          -1.52444044865852    0.77745682782802   -2.82750900340655
O           0.51774461369199    2.23666193861006    1.25355265205243
H           0.98379037582477    2.90125996548877    1.76211544564442
O           1.51835560533368    1.03126826647638   -1.04336184496271
H           1.94993531171566   -0.48152181343542   -0.46992321354390
H           0.71396475669060    0.82743741417280   -1.54235107566979
H           1.22904956783033    1.54320485665364   -0.26925059671432
O          -1.76551470070031    2.41164796703718   -0.19522533302223
H          -1.43822749513864    1.23097503702017   -1.32772075308215
H          -1.00655320753545    2.34572746417931    0.41829059388782
H          -1.81738980351448    3.32975833905318   -0.46677302135595
N           0.75522649389771   -0.05799796489973    2.53585770497562
H           0.77114732815452   -0.13141773228782    3.54572211073173
H           1.60389456803785   -0.48345988563570    2.17793563290493
H          -0.01385990698715   -0.62647157641551    2.19402460295585
H           0.57547916719779    1.37920753090430    1.77825765466358
