    26
        -50.44437987  Gyration_radius:  2.55272936477 Dipole_moment: 6.732
 S          -2.35643638066072   -0.75035478054790    1.15407310742719
O          -2.48782974085152   -1.69552641472691    0.08237469845708
O          -2.86030937003525   -1.09284174973693    2.43066731287171
O          -0.82678886335323   -0.38780740885220    1.26487095315894
O          -2.96736186897033    0.61059629907566    0.72538648495229
H          -2.53967580190603    0.88713320499324   -0.12419193838399
H          -0.36118943506441   -1.02036553763919    0.60662223847313
O           0.06893319437687   -2.00615345992097   -0.46016298793802
H          -0.85209489604425   -2.30217607997974   -0.55258146414512
O          -1.59119148035007    1.55757225896443   -1.29803201962250
H          -2.04138321467886    2.31885980289862   -1.66821885354461
O           2.35835012504351    0.97684443110282   -0.55060973386083
H           3.25442164910633    1.27149962989236   -0.71524613556188
O           0.45741706216115   -0.12277846024562   -2.25187772169449
H           0.24510645930091   -1.41597343052898   -1.24189600289374
H          -0.33380512939250    0.42060697715135   -2.12219525521806
H           1.18501191336957    0.34319351116825   -1.80646654899756
O           0.15463480389399    2.13893958903331    0.53235719194483
H          -0.12744945955964    1.41031213826018    1.10305898236265
H           1.01388718632511    1.86389221258205    0.15983060111075
H          -0.91919882954680    1.90816670944460   -0.64082791990664
N           2.34244001915238   -1.06062271402367    1.16677666789512
H           3.18320644380806   -1.49782733431276    1.52310920997789
H           1.82630910218136   -1.75694789337754    0.63727714587566
H           1.76259914512475   -0.80627209501495    1.95798076207713
H           2.41239734656793    0.20803058434068    0.08792122518560
