    26
        -50.45192334  Gyration_radius:  2.54500543757 Dipole_moment: 8.313
 S          -1.19497854152968   -1.65004595820384   -1.64266342319860
O           0.13006975420964   -1.08017397299970   -1.85324169400957
O          -1.77117539211434   -2.33775395925024   -2.74925908860075
O          -0.93604143603318   -2.80821474247940   -0.51415364900519
O          -2.06521966813563   -0.69940106632946   -0.95592629159892
H          -1.78505141710941   -0.69937266977605    0.59246797248437
H          -1.25068871389161   -3.57738670128690   -0.97805122189127
O          -1.45696718136856   -0.77526253196759    1.53360131800326
H          -1.92084387833031   -1.52719416212071    1.90429208828403
O          -0.76039220024857    1.68478970049375   -1.13037641711016
H          -1.29946461620398    0.88086270253493   -1.21126796279986
O           1.90955579771866    1.48815818968966    1.51307404144186
H           2.31125143346858    1.78402829248877    2.32974977244052
O           2.04043205729180    1.52864470290167   -1.26377388851871
H           0.13609541530112    1.43687755590859   -1.41137017326040
H           2.22107207190194    2.34012885526035   -1.73960909210945
H           2.14666850958060    1.72263342034962   -0.32099853244182
O          -0.62579952278054    1.95073886387363    1.49253220423759
H          -0.75735786256041    2.01147671504737    0.51151596747707
H          -1.08697385278658    1.14253187884036    1.74879571729174
H           0.93749252841997    1.75423613194388    1.55860586478924
N           1.03822581455070   -0.91626819215857    0.53192983511505
H           1.54441125154162   -0.05375463969090    0.81152894900510
H           0.77156167599372   -0.89807536176971   -0.51841210153381
H           1.59665530197752   -1.74373607299815    0.71112628093685
H           0.12746269114548   -0.95846698831896    1.04988352456763
