    26
        -50.46926250  Gyration_radius:  2.54901015762 Dipole_moment: 4.551
 S           0.27955690905754   -0.29519435043018   -0.38937953941206
O           0.44647915160844   -0.26110383773787   -1.82031014799776
O          -1.18481521254835   -0.68895756673472   -0.04855601367233
O           1.10116275746294   -1.29345503730076    0.28345220061862
O           0.50059181079150    1.03406149767422    0.21748115130655
O          -1.53634262703101   -0.74026033630320   -3.52636276466555
H          -1.60796852895021   -1.68817042396095   -3.64504527419176
H          -0.72547023956101   -0.59218803899411   -2.99580904928230
O           3.15437907404932   -0.56952112001708    1.80629476369630
H           2.50358853643195   -0.97865095478622    1.19362309747072
H           3.80749482349131   -0.14085495608460    1.25111726412936
O          -0.42367240745487   -1.72243837487233    2.39872838303302
H          -1.30290252677947   -1.62453284514710    2.02150088710814
H           0.16371281619449   -1.80971769668745    1.61629861535012
O          -0.54610167001461    2.40229905025448   -1.82296949527329
H          -0.10070525647841    2.04536547451575   -1.03250521202959
H          -0.11450128169750    1.96817761058086   -2.56467164755096
O          -2.61515470270638    0.73979530516500   -1.55211900873592
H          -2.50463303070740    0.23642323300147   -2.38368090151659
H          -1.81464575234677   -0.11007996101773   -0.62324979190461
H          -2.03357030426641    1.52744331397565   -1.65963559219021
N           0.90583336604073    0.53786941030294    2.69756257647402
H           0.75765263144312    1.24771373181201    3.40593198165984
H           1.89882140823322    0.21447042022853    2.64273376339850
H           0.30366170051678   -0.32017390790996    2.83071002780805
H           0.68754857521280    0.88168037047662    1.69885971637188
