    26
        -50.45192332  Gyration_radius:  2.54501353272 Dipole_moment: 8.314
 S          -2.45988373893282   -0.67394225460668   -0.58638906276073
O          -1.47179859100238   -1.56582861422563    0.00764982273895
O          -3.66452366693870   -1.28019483749358   -1.04542972350537
O          -2.91636556047377    0.27647372618946    0.66663471313503
O          -1.82426353797051    0.26481738895689   -1.50686399680872
H          -1.16847428731748    1.46186356339218   -0.72369539070837
H          -3.85179289451065    0.10208519674841    0.68607205552807
O           0.66907959910134   -0.75025021175832   -1.91957503795152
H          -0.26357845427442   -0.47923801712367   -1.90613879304326
O          -0.76290460598448    2.11789885158094   -0.08794166885007
H          -1.46433265679909    2.73644986442179    0.12033079530116
O           2.59887524251395    0.22151037637186    1.16093613596599
H           3.30212917179827    0.69983109700515    1.59966442126868
O           1.84862426794725    1.42204947708267   -0.99285868046990
H           2.40296016617088    0.71976458251763    0.30591635810042
H           1.50411400813448    0.63540902108934   -1.48872364898768
H           1.06266260091754    1.94577056683339   -0.79402450626660
O           1.73801101737052   -2.24338870519766    0.20524669636537
H           2.32635412563828   -2.81802584696843   -0.28584318976526
H           2.26956032387280   -1.50065188144590    0.52689696946457
H           0.76580416370046   -1.41579600383746   -1.21825667457437
N          -0.11480805680157    0.02637031179239    1.47880344235552
H           0.91981972844925   -0.06245477700285    1.48229352075030
H          -0.57848183366018   -0.74916644715340    0.88029425809013
H          -0.49029813141226   -0.02114951992509    2.41979019205186
H          -0.37648836943937    0.92979310274316    1.01521098256310
