    26
        -50.46843470  Gyration_radius:  2.53746095519 Dipole_moment: 4.844
 S          -0.56628912289096    0.60892363254460   -0.40046452405967
O          -0.66894248292622    1.01990802055400   -1.87193454890299
O          -1.59763223591245   -0.38320774866018   -0.10030205725654
O           0.77500826256466    0.01512339127758   -0.20041857217076
O          -0.71528216102058    1.79736621160390    0.41343851549646
O          -1.37671814330792   -2.66775418459293   -1.38591334012685
H          -2.27247534399800   -2.96263521023952   -1.55877205835108
H          -1.45961432976352   -1.86672812689195   -0.82206589571395
O           2.28948316931775   -0.78385776041258   -2.24993325191310
H           2.67792614441948    0.02642422454295   -2.58392063977591
H           1.80703587135005   -0.54001978869719   -1.43361955198895
O          -1.74995413974848    0.06365608847706    2.46368337957941
H          -1.96827331973966    1.00012195976111    2.47045015222978
H          -1.83263674934196   -0.19762391113295    1.51534678755938
O           1.02330243260986    2.68021710628520    2.17169543996301
H           0.32105438545715    2.48499894415496    1.50533841500298
H           1.66098960925002    3.23820178641889    1.72443486998045
O          -0.21463380137838   -1.08110645767334   -3.19968462752601
H          -0.61591301674256   -1.79397892521026   -2.65446067666071
H          -0.53145049492499    0.18142150508705   -2.45679815303780
H           0.75091851728392   -1.14938654907725   -3.04934990444133
N           0.87973763713013    0.03875207111139    2.37252642402584
H          -0.15886790220775   -0.04496970222255    2.58974408910699
H           1.15008739991839    1.03481202633602    2.53851656668844
H           1.44663521635594   -0.62306337161097    2.89085075279421
H           0.94650458825274   -0.09559524173634    1.31161240950990
