    26
        -50.45364634  Gyration_radius:  2.66211739811 Dipole_moment: 7.045
 S           2.02526290991756   -1.82106150878126   -0.06827364316165
O           2.62402262888442   -0.87296431658781    0.87359904018511
O           2.94877125267154   -2.57096572661504   -0.85046054814132
O           1.27912146932341   -2.90858169315970    0.88771331678578
O           0.91698324872961   -1.19676876233861   -0.78240671539750
H          -0.43091680209817   -1.33777840251890    0.06284965002447
H           1.89030822751828   -3.63569455776179    0.83251284732599
O          -0.23201567155780    2.38423774302583    0.50280247779892
H          -0.44576656335893    3.30087566616956    0.67746196204010
O          -1.11971778102102   -1.37396823038388    0.78064135224084
H          -1.15351351545019   -2.29633477676505    1.04138437367737
O          -2.01185802755767    0.97663983257243   -2.61578084670872
H          -2.22290591581690    1.63266864603013   -3.28050402543553
O           0.56641462994081    1.20278246461542   -1.97727366878590
H           0.50107624180636    1.72912138425091   -1.16842995991799
H           0.78547080354220    0.30172579933796   -1.68186518801746
H          -1.03027639853611    1.00374200018272   -2.50229121031733
O          -2.38971484857613    1.03651034762416    0.02846506388702
H          -2.41534819531018    1.01639660683321   -0.95394939299601
H          -2.17568526106259    0.12951907246091    0.28757953875903
H          -1.10494916827780    1.91659459951597    0.31188083292950
N           0.63444634117853    0.29009332064715    1.94789860850128
H           0.73522970845437    0.40957909799021    2.94973072280080
H           1.53628466134548   -0.15196818196906    1.51459096669560
H          -0.14622650526339   -0.36419265947363    1.70676957217425
H           0.43550253055703    1.19979222508754    1.47535491304892
