    26
        -50.44974528  Gyration_radius:  2.55356428945 Dipole_moment: 5.640
 S          -1.95982428838104   -0.58625879781567    1.71766098961109
O          -0.74575801326816    0.20163690701831    1.69520675796470
O          -2.66258297561084   -0.66393408518987    2.94074512652322
O          -2.90891961451969   -0.04954015852138    0.61437299995535
O          -1.60838299876508   -2.02022939879661    1.24054737781619
H          -0.84663446071387   -2.02029349250119    0.59213882290588
H          -2.40352069089854    0.32432784388936   -0.16065565913616
O           0.45468634681807   -2.15674676291634   -0.31914480007450
H           0.75114558880516   -3.06785974208429   -0.28977781665474
O          -1.68136772710342    1.09917403132809   -1.36796685857611
H          -2.32067798093556    1.69817552065978   -1.75729893110531
O           2.19409524259599    1.34253916875503   -1.01720573104082
H           2.67185556452282    1.89675818666251   -1.63527214420334
O           0.54416901729566   -0.26602457385977   -2.33285921208175
H           0.51315637753456   -1.05451440102594   -1.76772993710848
H          -0.31036407958725    0.17128231753787   -2.19746537954104
H           1.64553287695970    0.72358108986644   -1.56558220353909
O          -0.05135528346454    2.32593527680701    0.18747877230674
H          -0.23945069331672    1.70391756807904    0.91303314560099
H           0.83214117130738    2.07854285262959   -0.15206450281599
H          -1.05303451905931    1.66721573316706   -0.81049440181457
N           1.94151689574278   -0.64596177391832    1.15888356943377
H           2.63121289815336   -0.93974557507077    1.83714066339168
H           1.10965327113934   -1.60679506382953    0.25117393319978
H           1.15377674239815   -0.23136870732758    1.65247564385123
H           2.34893129235512    0.07618603645537    0.57265979513162
