    26
        -50.45168920  Gyration_radius:  2.43172047457 Dipole_moment: 1.667
 S           0.72511557401709    1.65926943456167   -0.05454299559839
O          -0.16947630998683    2.41767056691901    0.77343470468581
O           1.92245614173697    2.27199730158014   -0.50533146829237
O           1.11002510985491    0.36310649193058    0.71390676686763
O          -0.04503402937776    1.15427290587107   -1.29851728725083
H          -0.92547984403868    0.73178523624972   -1.05668570019649
H           0.40862901988150    0.08328003426072    1.37713219826366
O          -2.22740094248001   -0.06777857353633   -0.73344245362089
H          -2.67122154246219   -0.31838070291826   -1.54563128432542
O           1.50470069436270   -2.14685949054654   -0.55032579176478
H           1.94543383549386   -1.88144638647238    0.25968826321356
O          -0.65549689930049   -0.39161823166278    2.44367015518821
H          -0.36503070465797   -0.16487568540161    3.32883177658636
O          -2.42818400235593    1.32061970160995    1.66885626851426
H          -1.72830508318719    1.95142499112838    1.40983136494887
H          -2.73843188135309    0.93107161902641    0.83978969111232
H          -1.42823589545486    0.21939209638276    2.23636984893078
O          -1.03714361289681   -2.11839011574396    0.23359249011854
H          -1.81311306962574   -0.91807574424823   -0.36557903582199
H          -0.12493471139614   -2.19590575916769   -0.14186435680240
H          -0.92058596244920   -1.88216454793108    1.16147571793923
N           2.39742008806337   -0.12226600162751   -2.11021204160912
H           2.38092234407058    0.69406981652763   -1.50446502148286
H           3.33372523242139   -0.21023310000426   -2.48738036690531
H           1.77532536643127   -1.45982096618222   -1.21013904416463
H           1.77432111468717    0.07985512940357   -2.88246237853497
