    26
        -50.45793678  Gyration_radius:  2.82356959818 Dipole_moment: 4.335
 S          -2.07079342314516   -0.54273280266916    2.15320832720722
O          -0.74247671421229   -1.06239564420369    2.45620013410839
O          -3.13675482801419   -1.10478500997741    2.91515729560328
O          -2.01315625100847    1.02408683643181    2.56629030875247
O          -2.28560511198355   -0.49504264601166    0.70255214963890
H          -1.62006112494268    0.91915333833344    0.22375075515218
H          -2.44812965395527    0.98789553669835    3.41114863118608
O          -0.91418963683489   -1.75753524612939   -1.14159460262614
H          -1.51563451887853   -1.34566347745464   -0.47504938248058
O          -1.01084087442044    1.66754291172150    0.00810319265320
H          -1.17895239377188    2.32315772051918    0.68769893731009
O           2.54038819743746    0.55013191375943   -2.35080108799784
H           2.82853808794052    1.28652612434384   -2.89102728105567
O           3.41635194694612    0.07841823058833    0.13013854657261
H          -1.30367536762859   -2.60128781959525   -1.37177547445771
H           4.09152371803574   -0.59987540525721    0.08940326956628
H           3.19804010563537    0.30988064041867   -0.80066150022772
O          -0.13651328216236    0.58063026580712   -2.43164639042230
H          -0.48629240148408   -0.29555879650880   -2.20609052544096
H          -0.52070131206753    1.18569236587379   -1.78337563306345
H           1.55708025369473    0.53596431208666   -2.41869533448160
N           0.77844798140330   -0.33069417125326    0.50909669542058
H           0.52117271346642   -0.99753163795691   -0.23024044390957
H           0.29230915649201   -0.66250631784422    1.39998658057074
H           1.81325054110266   -0.23664059771588    0.57644826343812
H           0.34667420248040    0.58316935594735    0.27177456895947
