    26
        -50.46245516  Gyration_radius:  2.43539431293 Dipole_moment: 5.474
 S          -0.31154556637598   -1.00411040457580   -0.06109231911171
O           0.13309057485145   -1.44460765610454    1.25736389003163
O          -0.45674950030412    0.54350926036228    0.05296250386387
O           0.63236079258006   -1.32087382977921   -1.11014097015740
O          -1.66672553380190   -1.48353665516979   -0.35067179342670
O          -1.08617853686718    0.23377143660039    2.82361374736666
H          -0.49761077741240    0.98900754725381    2.73606024896336
H          -0.60987913216554   -0.50251974105207    2.36380456064032
O           2.83115112912100    0.25744719508592   -0.91047248200745
H           2.84211949097290    0.35176940332793    0.05846758855533
H           2.22042975467282   -0.48243819041052   -1.07152104474575
O           2.29680338090517   -0.00091710009724    1.76984500137384
H           2.91372134678179   -0.55102700692606    2.25594640581856
H           1.51631014714861   -0.56563917210826    1.58869307355305
O           0.03892378424601   -0.13646870141714   -3.41166285682328
H           0.16202340311313   -0.69871189863029   -2.61881093852443
H           0.62559959083482   -0.49258857499961   -4.08152443063568
O           0.82995798145962    1.78433135596663   -1.69437241129879
H           1.72192937020769    1.40925277984183   -1.48032194793508
H           0.52787352945321    1.29992062843911   -2.49002202819868
H           0.07228762807819    1.08857504013625   -0.66900927799875
N          -2.98883185583178    0.16337714950707    1.01781604020596
H          -3.04615006523288    1.02477715677686    0.48255907061196
H          -3.90514499275575   -0.14081179396689    1.33108179323159
H          -2.49069155416970   -0.60814320001375    0.37904806447189
H          -2.30507437950862    0.28665496195122    1.83236055217554
