    26
        -50.45981594  Gyration_radius:  2.58880896841 Dipole_moment: 3.909
 S          -2.04265473822481   -0.66258492445521    1.36414449874592
O          -1.06917680503638    0.15328278308000    2.05613814640121
O          -2.80077944507776   -1.58272454395100    2.14661838111701
O          -3.11295878817464    0.39852362475572    0.75586897624694
O          -1.43211197416117   -1.24065611143317    0.14994307915748
H           0.08042694675338   -1.85653604734706    0.05154838748636
H          -3.93071687934231    0.09117149181877    1.13389937658397
O           1.70808985401075    1.63527625852420    0.50602634178996
H           1.93205692109252    2.42095405681788    1.00533677461650
O           0.09308505430997    0.86630862201771   -3.09384998485871
H          -0.29687443466385    0.16691288379904   -3.62008542330846
O           1.02834498340405   -2.12608572678276    0.00010553241612
H           1.03325810958064   -3.07954655402284   -0.09188648372081
O           2.07094547751708   -0.15438665718103   -1.66143229517551
H           2.23662488843455    0.53773709414556   -1.00774075521655
H           1.77361925260767   -0.92540554986194   -1.14838239269643
H           0.92653115275993    0.49228730107834   -2.71003737219513
O           1.52598444364019   -0.38255430888927    2.10377436996073
H           1.72887613879698    0.87306419286443    1.16518280330738
H           0.57486561903471   -0.22289427919623    2.28066811644230
H           1.54842946538047   -1.13806300530914    1.49568291856502
N          -0.72169053836537    1.16888406728178   -0.58007736547051
H          -0.97632707571074    0.17659526947881   -0.31105706061158
H          -0.55383669796303    1.19788376771942   -1.61959431202457
H          -1.49353126497346    1.75833692906990   -0.28134774422563
H           0.16952031473007    1.43421937468212   -0.08944650374857
