    26
        -50.45981654  Gyration_radius:  2.58918758067 Dipole_moment: 3.920
 S          -1.78257876291232   -1.43956503514482   -1.10883176030243
O          -0.43296466677627   -1.63858843786290   -1.58938858290990
O          -2.84636489242249   -1.65224914493085   -2.03446433159504
O          -1.97350712681480   -2.55397213645020    0.05876245613454
O          -1.85994292532717   -0.16818434212304   -0.36088484239089
H          -1.13900032119169    1.23465211973743   -0.79534232982370
H          -2.74564189547807   -3.02264224009034   -0.24150109870916
O           2.40787818087399   -0.18735453959240   -0.12875372081670
H           3.14892369808646   -0.76612778807769   -0.30930267247873
O          -0.61011287141929    2.03392215109921   -1.03049429958551
H          -1.23710801139301    2.69583328583489   -1.32437731859605
O           0.23142749722172    0.78648075361006    3.10796736857292
H          -0.58210868095229    1.21366351564298    3.37969984690566
O           1.16731891277816    0.34084111554122   -2.32885973173439
H           0.58226390967135   -0.44164787967494   -2.24742110704531
H           0.61404940429289    1.09903663564324   -2.08370374472005
H           2.01388834972540    0.04616759328870   -1.02649552668142
O           1.23618534490191    2.11010818311091    1.04774094367359
H           0.57907081878966    2.20721364416164    0.33712354051702
H           0.66294864004644    1.39925866736257    2.45975185625057
H           1.89542202243168    1.49387779085485    0.70217495466490
N           0.14268648339428   -0.97466571048805    1.11655662592502
H          -0.01399262112776   -1.97289590640149    1.22383731077873
H           1.04657933367174   -0.78499605670884    0.61421586941734
H          -0.65744662165347   -0.60415383272453    0.52984823207350
H           0.15212677197963   -0.45401239626401    2.03214208275264
