    26
        -50.45653075  Gyration_radius:  2.55762562188 Dipole_moment: 6.223
 S          -1.60857985719029   -1.44361163066841   -1.36969576824572
O          -1.65124908631174   -1.10453790507969    0.05255976127283
O          -2.18122067469079   -2.71090605099699   -1.69583257917615
O          -2.53946735769404   -0.34269443173094   -2.10008724984603
O          -0.26667588518158   -1.19910844728028   -1.89313112489327
H          -0.38421113832537    0.33432992021293   -1.47065513541115
H          -3.31027382577413   -0.85986677227075   -2.31108281994338
O           2.15298493772752   -1.39253003760153   -0.74159712888194
H           1.41183665024147   -1.44938778421154   -1.37370761110360
O          -0.47477133549696    1.29294224485804   -1.24653676728612
H          -1.15046037177428    1.60747135706112   -1.85100203624651
O           1.07782253722111    1.08556286608287    2.40572198267627
H           1.14691645439474    1.37296422681599    3.31658780817563
O           2.16227735642377    1.26333498182104   -0.27550614804567
H           2.38888901033583   -0.43938031250958   -0.71084339584123
H           1.31496456454789    1.44008561503253   -0.71012138753479
H           1.99184094552885    1.30842466058785    0.67347870578630
O          -1.07699512111769    2.05262937267115    1.26233366803110
H           0.24321259654590    1.48218179765249    2.04291295595054
H          -1.13843915289040    2.99148538651855    1.07696958505820
H          -1.00543425790096    1.60812411771557    0.38949085468085
N           0.58427118802270   -1.39131234711622    1.33369916735135
H           0.79692847837260   -0.53059656538782    1.87139520869674
H           1.30977106506475   -1.49052950711849    0.53845583854956
H           0.57328228254009   -2.20876614226358    1.93263353647022
H          -0.36722003248653   -1.27630858277808    0.85356007975012
