    26
        -50.45610059  Gyration_radius:  2.43393199626 Dipole_moment: 1.781
 S           0.86175059258082    0.12880030596467   -0.60505643232392
O           0.59209672683426   -1.30110957986453   -0.56606981122227
O           1.83491340059344    0.50719843230320    0.41737987078539
O           1.43235957992885    0.53293738992297   -1.96426346713635
O          -0.39678919325241    0.88537909664211   -0.40708944149037
O           0.21840549331737    2.18511206156217    1.73573179583803
H          -0.16818255809027    1.87035669536369    0.87699702611905
H           1.16570242081454    2.06739197240777    1.57521986868859
O          -1.54861950099426   -1.75931005023191   -2.07096099773158
H          -0.70047717130722   -1.71129679467758   -1.58046086141193
H          -2.23700254827754   -1.77665938746688   -1.40226200858692
O          -1.46743201983862   -0.93786191402191    1.07593345292994
H          -0.80362930237661   -1.57093029232261    0.75232024968550
H          -1.31300186440755   -0.17055757553089    0.46874973653557
O           1.86892964656219   -0.97242534421858    2.51841922866711
H           2.70146506349628   -0.81150757705577    2.96587138752123
H           1.93217794934347   -0.51816523654241    1.63180214905278
O          -0.34263002593600    0.12378294022632    3.05816784367420
H          -0.92959818928472   -0.37039466235208    2.33985783908454
H           0.56201519583975   -0.36581408743251    3.00371667062473
H          -0.15679175108364    1.06856122289241    2.61765877627132
N          -0.68831849988590    0.59419558649819   -3.36588461940636
H           0.60547452363237    0.57116883862535   -2.60896936358529
H          -0.64936397675668    0.64985025870970   -4.37443939935914
H          -1.13773324678928   -0.28213658900612   -3.08834826447049
H          -1.23572075459439    1.36343432018966   -3.00402122901062
