    26
        -50.43998956  Gyration_radius:  2.62167622563 Dipole_moment: 4.643
 S          -2.15882159576045   -1.40445204621914   -0.71807425440117
O          -1.64531261914144   -1.93206593040731   -1.94590867491177
O          -1.65374741875037   -1.91751640382193    0.50729656336114
O          -2.03910541039049    0.11804156880141   -0.77139879310321
O          -3.72419391028222   -1.64527922771584   -0.73944964242409
H          -3.97485584079917   -1.68563914852797   -1.65973807649159
H          -2.15701824391289    0.54604346751540    0.18723489470727
O           0.91171395200337   -1.27606417444244    1.27149953332347
H           0.04787169924851   -1.69980425329242    1.36287152760746
O           1.26606356415178    1.97004017999561   -0.62232748695237
H           1.59351923077183    2.82972806831268   -0.88801618637138
O          -2.23216641036379    1.19134909534548    1.45841009958348
H          -2.49054182969267    2.10844463553985    1.34012831484202
O           0.29014652296712    1.25986570655321    1.82976383569206
H          -1.24408636148090    1.20673659128602    1.71781230073228
H           0.56598165824989    0.31401335487002    1.78987059300479
H           0.59366145879085    1.63417648883329    0.98129389102809
O           0.77386709840131   -0.79836576372938   -1.41607402324115
H           1.01270994604043   -1.17640716272799    0.30434622630388
H          -0.00930958587809   -1.25849485006296   -1.75192245385698
H           0.57086852920745    0.14551941487374   -1.41738627642248
N           3.28143532154029    0.25756179157610   -0.13227600919043
H           4.28444614593560    0.38833137012828   -0.16902909602566
H           3.04780013149935   -0.13340170225218    0.77370577755153
H           2.06361387316376    1.39563954577239   -0.46775544513775
H           3.02546009458175   -0.43800064619287   -0.82487712931576
