    26
        -50.45156594  Gyration_radius:  2.44922764596 Dipole_moment: 6.104
 S          -1.20898048882628   -1.42162136888405   -0.20962343332479
O          -0.36225994295089   -1.32045835325150    0.95334507308107
O          -2.54005924537170   -0.95027994473368   -0.03489334091298
O          -0.51766588713494   -0.66646238154948   -1.38996661967310
O          -1.19673667715274   -2.84657958830255   -0.75306636147460
H          -0.25482079234135   -2.99746797067115   -1.10739509106979
H          -0.46752072743999    0.32970831705554   -1.28023160903664
O           1.16768671497980   -2.91888011097540   -1.70010431945571
H           1.06435074181744   -2.38948073151128   -2.49476411776144
O          -0.11513720304396    1.87702366259004   -1.26843920069130
H           0.24809125778088    2.10199858386103   -2.12753240203439
O           0.20049917735838    0.99367163610815    2.30646357154301
H           0.05977018509401    0.05043454659006    2.13807194404312
O           2.16011934506661   -1.22864675660839    0.08278366873444
H           1.33296118452036   -1.33467094954143    0.58601652891549
H           1.68514712498739   -2.36199207823604   -1.06783466192153
H           2.29906475714681   -0.27202210126564    0.04108738459327
O           1.86847033740437    1.57296690406785    0.43406671513545
H           1.26971369460929    1.34774035929840    1.22021313546878
H           0.64869509070689    1.84844363419293   -0.63578575947997
H           2.45324925690177    2.26614983624247    0.74326167250045
N          -2.07494376627179    1.72003335251779    1.07178744433261
H          -1.82621033788391    2.20270501588335    0.21607817280618
H          -2.38612856951784    0.78795904810600    0.80547616271257
H          -0.64176138564514    1.40750392177854    1.99037469216364
H          -2.86559383488599    2.20222350702766    1.48061074081264
