    26
        -50.46015602  Gyration_radius:  2.56919661962 Dipole_moment: 4.622
 S          -0.19093632287466    1.34632983391943   -2.03325028664896
O          -1.54659909098097    1.22637265150424   -2.48901293734907
O           0.02530061389251    2.16710187326027   -0.86306636111345
O           0.44659628219094    0.02728131142948   -1.83348229570976
O           0.62681507987349    2.02844835818252   -3.22256766029714
H           0.06786805940787    1.89688624817406   -3.98304182672716
H          -0.91640712869106   -0.76239744968964   -1.26692344047809
O          -1.74626500114005   -1.06318271565526   -0.83958004200539
H          -2.42000706468462   -0.95127801660039   -1.51456709187957
O          -0.14489892213183    0.57896353652467    2.29744673395054
H          -0.10505850012938    1.22327928897502    3.00477624046985
O           2.11031512130762   -2.37489283875797    1.10312764876731
H           2.46131794060614   -2.74475696881567    1.91417950735821
O          -1.97555508622719    1.25920433305577    0.62888246810055
H          -2.14088518864363    0.43408385500522    0.13800160109960
H          -0.91551761469312    0.86453104525631    1.71018774084991
H          -1.39538492755313    1.78547972956081    0.04482317708180
O          -0.50032565101147   -2.11060231545351    1.44892801260033
H          -0.50449085594580   -1.27248591839390    1.93181747312037
H          -1.01050185596879   -1.94774021225458    0.64230218119593
H           1.12474315196356   -2.44473643523762    1.17261901438568
N           1.75202553008574    0.17660492972413    0.40983126870164
H           2.09239346837327   -0.78771832207462    0.64833464462294
H           1.25084252570940    0.12670881347693   -0.53311730493770
H           1.05225929114236    0.46288719521689    1.13618864129918
H           2.50235612610537    0.85562817963566    0.34716289355837
