    26
        -50.43782367  Gyration_radius:  2.75462667324 Dipole_moment: 6.977
 S          -0.89071100281138    0.76502152780665   -2.86646148599402
O          -0.72783949148277   -0.48589465931215   -2.18735851676837
O          -0.18756781122946    0.97415218749032   -4.07091328390313
O          -2.42676039023684    0.99139648033756   -3.09904858183884
O          -0.54027497662756    1.91133857705243   -1.85522487528992
H          -1.23514103678464    1.78832482170212   -1.15449191625949
H          -2.84118146051558    0.82546938406236   -2.24212781856486
O           0.29838180125457   -2.25613834068399    1.59952889980725
H           0.28893991847110   -3.11698985817550    2.01804218826115
O          -2.52603803959515    1.21147777189259   -0.36908316858646
H          -3.04269443646439    1.85220845543516    0.12511325414525
O           1.32734116146573    1.04344860031563    0.25189587201983
H           1.07101125466500    1.62716338041316   -0.46784815424230
O           1.41840808524878   -1.37076025915154   -0.80682024931324
H           1.00955643689817   -1.86946924342228   -0.08073877143235
H           0.69904502980614   -1.19974812321788   -1.43762749381549
H           1.49907525785683    0.16122475878527   -0.17342790367470
O          -0.96515647245875    0.19954431921657    1.38490064187437
H          -1.99050899422918    0.70378336325533    0.32533994737627
H          -0.79596553452186   -0.75436690316041    1.41998144003425
H          -0.11480762021910    0.58637203182524    1.07474923873914
N           2.22549677574282   -0.66101038707686    2.59965463098736
H           2.09987660624194    0.13202882207372    1.97758140558117
H           3.16089902646712   -1.01705644252415    2.44654730541170
H           2.17042399133028   -0.31826896509545    3.55060935042561
H           1.01619191173993   -1.72325126980621    2.03722803501638
