    26
        -50.46367307  Gyration_radius:  2.38485888883 Dipole_moment: 6.394
 S          -0.14948764772430   -1.16731347304571   -0.11530869555009
O           0.69527517008130   -2.31022235515707   -0.29718226826209
O          -1.33572083844262   -1.24666713787787   -1.09989013182503
O          -0.71780733869970   -1.07958092197229    1.23824132093997
O           0.57396694243222    0.09582633118080   -0.38872224407610
O           0.72825745935424   -1.47652328116247   -2.94754299773836
H           0.91487329235808   -1.80302450508893   -2.05594923142397
H          -0.09417644266750   -1.90291970236546   -3.19927634469483
O           1.54437884912788   -1.37321372919781    2.52768525474115
H           2.04190241811325   -1.95057509963801    1.94247528806951
H           0.62015483998106   -1.43860347604339    2.20027565521266
O          -1.36958463746328    1.37821644549538    1.70719823070144
H          -1.20554613047901    0.41191281386739    1.54195401058905
H          -2.18929773914195    1.42395065786055    2.20249590580072
O           0.03146902308861    1.36359807692953   -2.67480635804078
H           0.13910610212400    0.67019818309000   -3.33482523070841
H           0.42764376449488    0.96818053390152   -1.87750864569886
O          -2.12811504864079    1.18519080026142   -1.08044640587385
H          -1.81204567889193    1.51173874776220   -0.22491281083352
H          -1.46104180273991    1.45405383571801   -1.75239531935853
H          -1.76901646823686   -0.33230110184775   -1.11199153099066
N           1.33252649429701    1.16019393056186    1.78963294267127
H           0.42575399184366    1.52665992827126    2.11891843196101
H           1.58105027587529    0.27108016710922    2.29767998655020
H           1.10797151013612    0.80186367017619    0.78539835848336
H           2.06750964982685    1.85828066120403    1.80880279934698
