    26
        -50.46846777  Gyration_radius:  2.39941125072 Dipole_moment: 5.641
 S          -1.51537563834283   -0.99933516354023    0.13211571809816
O          -1.32386741138720    0.04912935716328    1.16362271938918
O          -1.97418175088169   -2.23615088413465    0.70399892736555
O          -2.59598250078762   -0.45533337340184   -0.85037714157915
O          -0.27605693118820   -1.16035653538783   -0.61982398873751
H           0.74557008964977   -3.18800001396066    0.18814423799771
H          -2.17763640049210    0.30657432550818   -1.31888270640050
O           0.49091073421827   -3.11486086858795    1.11299373624433
H          -0.47979629157383   -2.94941882692907    1.07232329741888
O          -1.45870367993334    1.69701923787877   -1.92968021183190
H          -2.16449053553249    2.29645719492251   -2.17826536608007
O           2.20721360163647    1.15606460461202    0.12186300983138
H           3.12511394498494    1.38007009535022   -0.03595366296955
O           1.09959282684695    0.45932203922764   -2.12361052997439
H           0.60686925215658   -0.26638949373755   -1.67690894800878
H           0.40415370281969    1.05518323287515   -2.42574952039109
H           1.82843447555707    0.90151312656633   -0.77254516739900
O          -0.38049231274859    2.37724267178065    0.34870538031887
H          -0.81052482320908    1.59965480478562    0.76727668172181
H           0.56585426930298    2.17796356418884    0.34624175575401
H          -1.05086360544154    2.06971048526976   -1.09798857740443
N           1.06145462249690   -0.62959838488160    1.83703181284121
H           1.35926691907722   -0.51782322432482    2.80058403756960
H           1.01103067438029   -1.65385507101872    1.55717319958410
H           0.05251471184446   -0.28826487776066    1.69091174700659
H           1.64999205652400   -0.06651803245410    1.18679957962325
