    26
        -50.44415774  Gyration_radius:  2.47642290654 Dipole_moment: 5.577
 S          -0.72527122873574   -2.19033841555467   -0.39029822168790
O          -1.30396957232861   -1.48715325573725   -1.51244626993573
O          -0.95902374743133   -3.58080457065383   -0.27941703067665
O           0.80987959236890   -1.89676570252637   -0.39484156154038
O          -1.15754340490381   -1.45869406569957    0.90631958445076
H          -1.82956005180193   -0.72487656090966    0.60853031879572
H           1.02169964367446   -1.53082592941534   -1.32659822139611
O           0.99858698998109   -0.80477069638147   -2.66287371953633
H           0.03870447687892   -0.92874831009160   -2.72681800673948
O          -2.63348695139619    0.32159507115363   -0.04692481327507
H          -2.53117489945536   -0.07220051308625   -0.92542752211641
O           2.06867740930451    0.30668505310466    0.78622254310785
H           1.85976728095455   -0.60467110234673    0.53654468564772
O           1.44714583402620    1.56642926873854   -1.42707690122920
H           2.14228871023133    2.15355167231954   -1.72741118539052
H           1.14516413221324    0.12542027637491   -2.39219894937396
H           1.78621744554920    1.12168636151872   -0.60270023590859
O          -0.72663827035983    2.15241710994015    0.15559474080092
H          -0.05600480044426    2.05926857473508   -0.54217253848334
H          -2.04166668310306    1.11433258310621   -0.01885779980246
H          -0.29842941184527    1.88620501196809    0.97742163867649
N           0.04237738006274    0.61089146407536    2.67913997770228
H           1.44592825145926    0.52911777247010    1.50484135327475
H          -0.40655527297848   -0.22901186186841    2.31783810055902
H           0.56265225913815    0.33657453375072    3.50543562077334
H          -0.69976512102537    1.22468625104758    2.99817441327788
