    26
        -50.45123038  Gyration_radius:  2.47105071127 Dipole_moment: 4.662
 S          -1.93900083130113   -0.26860903786113    1.38708702700139
O          -0.77250848896109    0.58618282378473    1.39496802006168
O          -3.04371965838719    0.17118633319953    2.15517738701184
O          -2.34246870970920   -0.50665225479233   -0.09911716661118
O          -1.52295651483221   -1.68683968283654    1.81652693413850
H          -0.87443192505720   -1.99523757279041    1.11364261393269
H          -2.04617788587098    0.24092722125864   -0.69419934495783
O           0.05076906491526   -2.44032567281027   -0.06902704654275
H          -0.39284688699914   -3.16829846282082   -0.50889955405504
O          -1.54067958195357    1.37139540451932   -1.68496524759656
H          -2.24748020024936    1.97373081944031   -1.92173603091364
O           2.35954081818614    0.89789415792591   -0.77330023079165
H           3.29428003187571    0.95766669628185   -0.97120143401493
O           0.42723852223364   -0.64719305117153   -1.94501546747644
H           0.18547009125710   -1.74399803440543   -0.77293690805872
H          -0.31900161834403   -0.04991907099681   -2.07774127824533
H           1.16722719941368   -0.08653086301455   -1.64482842945821
O           0.21287118491436    2.52578864859564   -0.19349343239747
H          -0.08581664296113    2.00957471156753    0.57546648673155
H           1.06316020175399    2.12722673135257   -0.44922444654935
H          -0.86278293865502    1.90784352200629   -1.16213061808891
N           1.87788522595757   -0.50252131924986    1.41127924711929
H           1.73004105707918   -1.47556007894416    1.16922377784216
H           2.26855861176458    0.37505756300755    0.08085369459900
H           0.95552830814459   -0.10268768155107    1.58452932389954
H           2.39730156577944   -0.47010185969491    2.27906212342401
