    26
        -50.45123438  Gyration_radius:  2.5239704304 Dipole_moment: 7.076
 S          -1.78509558553130    0.23316573460236    1.76981220360311
O          -0.35604533783846    0.39997066060010    2.11808623371250
O          -2.67645910011894    0.44186215517929    2.85146009096693
O          -2.04896473963463    1.38338804979353    0.68499345753795
O          -1.95731917160354   -1.01625137856765    1.02256383729454
H          -0.44523559396318   -1.65333780489524    0.93677080304878
H          -1.73022451829566    1.03657099384635   -0.16063676397717
O           3.24161429438941    0.73756982186140   -0.18073966042998
H           3.78144161598218    0.26693762890114    0.45571064541700
O           0.49730905646802   -1.92237303273273    0.84349634731948
H           0.90730146222482   -1.58392783997936    1.64256240695738
O          -0.81209228876570    0.67345630573136   -1.71043970557199
H          -1.26411215791054    1.11528984861212   -2.43113915998069
O          -1.75922901390760   -1.71547099125763   -1.48354143420779
H          -1.17266697742952   -0.26541381815043   -1.69615092353669
H          -1.11540871626925   -2.42776711742245   -1.44213337730125
H          -2.03643041783363   -1.56186873064595   -0.55098107031903
O           1.63593629523513   -0.96569030683615   -1.37468867256989
H           1.24687661331334   -1.41239866060653   -0.58721557849073
H           0.91870684816538   -0.46556690653497   -1.77650705878073
H           2.79878735691821    0.04550048634468   -0.73727946458284
N           0.83808734182081    1.75274653679769    0.35169380811753
H           0.76646636104921    2.74389110042765    0.55497499167347
H           1.84356635404039    1.45533621003348    0.24562066612632
H           0.35110992174900    1.17559351110651    1.16668810214807
H           0.33208009773312    1.52878755372406   -0.51298072417361
