    26
        -50.45592202  Gyration_radius:  2.66403948164 Dipole_moment: 5.303
 S           0.15550567527774   -1.92707319128231   -1.92586261347976
O          -0.84649876353473   -1.44391669530503   -2.84501145064256
O           1.40286999283773   -1.16217868780587   -2.02163223140447
O          -0.31048888554956   -1.99129293310300   -0.54686965049751
O           0.49982162599700   -3.41638572952794   -2.35265846258497
H           0.39702109864125   -3.40712960660973   -3.30022119668083
H          -1.40620636960065   -0.75014860973658   -0.59838266851616
O           1.83650770332971    0.78606911228479    1.47972770880831
H           2.72251148489625    0.42242452266505    1.46997856244746
O          -1.81971110030403    0.11072585765199   -0.84462822839906
H          -2.06456832625214   -0.03781195130737   -1.76584026019388
O          -1.86787464233298    0.66714296498307    1.91093541770931
H          -2.20732835933640    0.51371752468964    1.02133833328013
O          -0.05149115258986    2.77645082414433    1.77348136506483
H          -0.08760551066429    3.27298924503405    2.59220626996634
H           0.72044119417280    2.19234120573956    1.83648472388347
H          -1.35816002170115    1.49369943504323    1.85790348073769
O           0.18043493134230   -1.09269969416118    1.97013154106860
H           1.22310818191624    0.01541670239806    1.74350500466628
H          -0.64950529474334   -0.58192589084082    2.09974196425288
H           0.05904881420669   -1.57830663313455    1.13498225231164
N           0.69630543081466    1.05918949598740   -0.94197428518518
H          -0.33764466839633    0.90264314337762   -0.84138844207761
H           1.07135484238646    0.19120311390365   -1.46346714718523
H           0.88753783425821    1.91826200170343   -1.44618837182162
H           1.15461430491372    1.06659446324051    0.00370838448187
