    26
        -50.46607504  Gyration_radius:  2.43501679931 Dipole_moment: 6.136
 S          -2.21483941380214   -0.70916743541058    0.03947572631599
O          -1.22869551841779   -1.66869593694543    0.53771797184921
O          -2.78392655991950    0.12515653886746    1.04906027931175
O          -1.64268850514707    0.05608988333195   -1.07621968000854
O          -3.37896950261271   -1.57805529157917   -0.59530757771941
H          -2.93257046428544   -2.12591893463324   -1.23399102653383
H          -1.17172783935921    1.29023153428858   -0.16125032559307
O           1.11050905224752   -2.08217456380474   -0.65507344851824
H           0.22264801456649   -2.08267710726186   -0.23280647233654
O          -0.81784709694821    1.98131843124153    0.45264115864740
H          -1.60320339842994    2.37983797480855    0.83478443585070
O           1.67890556920230    1.97424286623556   -0.58162137273187
H           1.97085865344934    2.85151235133895   -0.83253146551812
O           0.69203257419277   -0.09153109895824   -2.35947239455996
H           1.01285618021455   -1.50883516924968   -1.45199494582810
H          -0.23111710976782   -0.02146685535881   -2.04651212710851
H           1.14687240320603    0.66585864330312   -1.96905541297201
O          -0.07642180449570   -0.00956700783554    2.25642761837078
H           0.78109630627164    2.07503862239604   -0.20738359865090
H          -0.45141134762568    0.80810809534791    1.88850441228245
H          -0.59755875486141   -0.72110932092359    1.83026855231592
N           2.14127784929218   -0.31354232403305    0.91313926837312
H           1.82822203373761   -1.12819561035886    0.25543004516907
H           2.23769373195616    0.54475703749912    0.35344071601678
H           1.31214527579482   -0.17742124654191    1.58189249178842
H           2.99585966152268   -0.53379409574541    1.41043717180420
