    26
        -50.45592087  Gyration_radius:  2.66390839123 Dipole_moment: 5.281
 S           0.20794071402250   -2.71351751879434   -0.20275745944172
O           1.02147070154473   -2.98980078903024    0.95664985179998
O          -1.18724380112750   -2.44148175308953    0.15648351281765
O           0.74443349130066   -1.65040459140039   -1.04261845474346
O           0.20312190897806   -4.02926525392502   -1.09044534407271
H           0.28142250342038   -4.73033847625457   -0.44940407853910
H           1.51054796189828   -0.77112265450027    0.13262180312802
O           1.69740098593182   -0.36092583800988    1.00993769000678
H           1.92567723802170   -1.12794704358363    1.54853916810661
O           1.74835733395494    2.09753722081170   -0.35323244408283
H           2.07081125317300    1.36150053836155    0.18007082822638
O          -1.89673136585930    1.41508400163298   -0.76630601919501
H          -2.67149489859010    1.07251607715489   -1.21317042898335
O          -0.51736261651537    3.12509315393077    0.90251025061663
H           1.05628180066278    2.52420697935028    0.18048693071316
H          -0.55847142933012    4.06970186578101    0.74693208925266
H          -1.12646676586976    2.71245874525859    0.27022837031561
O           0.17678888809801    0.78176973250988   -2.11232184013487
H          -1.10692412905505    1.19527839718479   -1.37276000575891
H           0.86860347501381    1.30289745881363   -1.64716733904342
H           0.36845218972262   -0.14967695467516   -1.90303900976676
N          -0.97277186520428   -0.12187898930195    1.23931038349040
H           0.07251157802045   -0.02457295979505    1.27721669864852
H          -1.38556971512330    0.01884047533177    2.15504282054879
H          -1.37325210181847    0.54985611591329    0.53728737759524
H          -1.15753335524844   -1.11580792966286    0.85990463849269
