    26
        -50.45739751  Gyration_radius:  2.57200211251 Dipole_moment: 4.504
 S          -2.12712804615588   -1.19289703265651    0.93523299956770
O          -2.92837001214777   -0.00006930491882    1.06725217570902
O          -2.70149559303043   -2.40421904767985    1.42252250019345
O          -1.93994114594802   -1.40824657502325   -0.67091481478137
O          -0.73331565309433   -0.97192465617658    1.36222697635977
H          -0.17791945065379    0.54890605217753    1.65611629339315
H          -2.82902668504133   -1.64677091691192   -0.90962531573311
O           3.26868504840448   -0.71373962204020    0.03817893588630
H           3.54466676161724   -0.79204070302266    0.95255149618299
O           0.17819079026480    1.46489395346546    1.75119817787395
H           0.03184112363629    1.71558226735516    2.66373175024087
O           0.07081657996494    0.73042262674853   -2.03397715257485
H          -0.32614108894324    0.75092886805180   -2.90484038355115
O          -1.60075870419465    1.75324324903487   -0.34638894412785
H          -2.20407653757626    1.12199743971351    0.10890198977379
H          -1.00521011338214    2.04993032510045    0.35786169314950
H          -0.61961504851821    1.11280498641283   -1.40949500923672
O           2.09397301196627    1.62464033769914   -0.23386118467707
H           1.52248369437679    1.52598176636695   -1.00711316141664
H           1.49259335739411    1.67756797925093    0.52822900335685
H           2.99485636437445    0.23257007587111   -0.08860121861587
N           0.81145731958603   -1.45897524989878   -0.65848127676895
H           0.51711374504241   -0.69146545097139   -1.31090974656988
H           1.82286280499783   -1.31683891195269   -0.39658839893221
H           0.19809882277697   -1.34563691000548    0.20476258861210
H           0.64535864427729   -2.36664556597266   -1.07796994329226
