    26
        -50.45468207  Gyration_radius:  2.69740237814 Dipole_moment: 5.734
 S           2.50023888689846   -0.61912518166363    1.01810942483065
O           1.72228050535294   -1.86504956771561    1.03904456976224
O           2.76486716696466   -0.13838456183168   -0.31402160202539
O           1.88672086008777    0.37323383261907    1.89026744931930
O           3.90541482364933   -0.98420376818824    1.66264067764212
H           3.66925550756342   -1.35258084026107    2.50899263124211
H           0.38818642897561    0.93623079521599    2.11183251616386
O           0.58881818564281    0.91443665489553   -1.27097440615919
H           1.50349996153735    0.65527135309676   -1.00851996617991
O          -0.57869457284825    1.11908167007540    2.24473920051759
H          -0.65934436701710    1.45794408634815    3.13677070740209
O          -2.72398365917405   -0.30823625043858   -1.25729290551731
H          -3.58826882705524   -0.14499780656769   -1.63618176754403
O          -0.69621362555935   -0.63327299075617   -3.10178407258511
H           0.40745599425777    0.51104628624093   -2.13840196968015
H          -0.51624620881980   -1.56637045537768   -3.22078464384675
H          -1.48762223206890   -0.56078817066825   -2.53445003992683
O          -1.74039564372457    1.92658848723067   -0.17451404253741
H          -2.43835467607689    0.55296211934560   -0.85808386124917
H          -1.45382196248660    1.82485047569967    0.74686089428186
H          -0.91826251119824    1.98058818573353   -0.68293039044855
N          -0.53349060367369   -0.84473191606029    0.36865029261760
H           0.31674971023920   -1.43362199181176    0.64424641622107
H          -0.16174104282406   -0.11793639762847   -0.32002881213989
H          -1.30593541261323   -1.35599048501608   -0.05429325722134
H          -0.85111269602571   -0.32694354250452    1.20010696702785
