    26
        -50.45739752  Gyration_radius:  2.57214296964 Dipole_moment: 4.504
 S           0.34971169941763    2.15519098325406   -1.43405935546009
O          -0.88156054656377    2.80079059290585   -1.04762849501009
O           1.13230936072396    2.81617384447116   -2.42664348005940
O           1.26827347147380    2.14091821524065   -0.08603902215354
O           0.16503282595709    0.71229537626765   -1.67428259999639
H          -1.23502967888632   -0.03790107095121   -1.24489646682456
H           1.45850695127037    3.06931386753989   -0.00711402605423
O           1.08276151971350   -3.15636696447498   -0.24757564134145
H           0.79291074720035   -3.50535463182596   -1.09172100786543
O          -2.03971511639186   -0.50316653931301   -0.91181320918362
H          -2.68169519012710   -0.46909181925796   -1.62154219549633
O           0.24763953765392    0.03254829989110    2.14765661136912
H           0.55219110467552    0.50243522540991    2.92409384955894
O          -1.04403839483108   -2.23517766901000    0.99777715715633
H          -1.50889418258647   -1.71608918690745    0.31979277173847
H           0.25819370542439   -2.98132035928176    0.27770094797993
H          -0.70064208230958   -1.58782433526592    1.62807996788748
O          -1.63471257422023    1.41575815265524    1.03786928131569
H          -0.46263126393016    0.61508707800194    1.73645754811814
H          -1.35816877878257    2.04337874854949    0.33119002926568
H          -2.11987512164609    0.72832855579890    0.55740159448860
N           1.69875815107094   -0.57675534947503   -0.03330268624017
H           2.66456677218578   -0.27086640396905   -0.06622682050504
H           1.13439203878006   -0.06151482564013   -0.77509550353986
H           1.60236406021067   -1.61737938473710   -0.17273372913206
H           1.25935096451600   -0.31341040987431    0.88265445998563
