    26
        -50.45739757  Gyration_radius:  2.57169058117 Dipole_moment: 4.502
 S           0.79330250628973   -1.11863786102535   -2.22193160407898
O           1.21138282868825    0.10125119965175   -2.86949679756530
O           0.85853504252239   -2.31021653611934   -3.00324830660777
O           1.84735166176868   -1.33675946031119   -0.99618974562542
O          -0.47357393617823   -0.94779421805107   -1.48733748307883
H          -1.10448883151748    0.55254357956141   -1.24545378133324
H           2.63347632265351   -1.54341445080480   -1.48988850820668
O           1.42171455067148    0.73110001331142    1.45605567686419
H           2.32867759386850    0.76776622445131    1.76015091187827
O          -2.23612804838863   -0.82913621688603    2.34675896797920
H          -3.09068639141537   -0.91938379459155    1.92254602776169
O          -1.43913203225819    1.45567523898967   -1.02790790352922
H          -2.01272351337083    1.71000239336965   -1.75129613872948
O          -1.29644162906071    1.54969055180777    1.73010460885157
H          -0.33886184801405    1.47260165424446    1.83673118110924
H          -1.44573997552692    1.62289095872302    0.77219414730365
H          -1.98097289148042    0.12649944532700    2.25576474623467
O           1.29994615053815    1.80898812085984   -0.89174495992850
H           0.37156953003289    2.08374900704361   -0.92849382462431
H           1.42554363640929    1.13613788933547    0.53476619371645
H           1.39299823403172    1.19866608503777   -1.65891773656761
N          -0.03323425326726   -1.48594760783058    1.00719100265148
H          -0.25045903213742   -1.35257823693039   -0.02688538931475
H           0.41013146385496   -2.38631047922163    1.14929325965262
H           0.62505560642652   -0.70712544337586    1.25522526822137
H          -0.91724273511854   -1.38025805657937    1.57201020697117
