    26
        -50.46379652  Gyration_radius:  2.41585763839 Dipole_moment: 9.065
 S           0.48503075233132    1.89332056097329   -0.11936853354211
O           1.25057185830630    0.83144369510170   -0.82500284938890
O           0.38136315508479    3.08002607136179   -0.91004964877858
O          -0.96788731142201    1.28672689991657    0.05575506948198
O           0.98510108131346    2.02895867483485    1.23466811708519
H           0.78945549976553    0.81023991291999    2.17172759868600
H          -1.38563725181238    1.48940981096318   -0.83860796418157
O          -0.69391315263131   -2.38481232787492   -0.35571294379241
H          -1.15866861526689   -3.21976985573182   -0.42023011620674
O          -1.56861954731170    1.85139289127047   -2.34062370874245
H          -0.86143224354008    2.51194659138265   -2.26120955028966
O           0.74293953832538   -0.02909151076762    2.72655903169679
H           1.05289863454795    0.22550102653344    3.59691702418940
O          -1.64221335015497   -0.86736829924365    1.55877555829720
H          -0.93645316157706   -0.71233724636363    2.20528244268566
H          -1.16497039024506   -1.85010143012487    0.34134433710016
H          -1.68516029957752   -0.03531168700653    1.05894274558733
O          -0.23514898469676   -0.49360247010633   -2.59901341792650
H           0.43052389301361   -0.00914637014376   -2.07429348766258
H          -0.56166310994995   -1.18857041469655   -2.01485616093234
H          -1.17629523875970    1.04336105881994   -2.73086791939351
N           1.60733044368290   -1.28693325799069    0.52019744866933
H           1.52960418964706   -0.35689193563371   -0.06809859749858
H           0.85219756399172   -1.90942124391246    0.16641443970361
H           2.52452340788665   -1.70631247704965    0.42072217087056
H           1.40652263905345   -1.00265666744043    1.50062891428252
