    26
        -50.46379652  Gyration_radius:  2.41587174772 Dipole_moment: 9.067
 S          -1.88968722996222   -0.49051974493325    0.15078300755383
O          -1.15717789621848    0.19560226634223    1.24815458512677
O          -3.23396776638198   -0.01647674635764    0.03948076994868
O          -1.10960217872707   -0.08029356173580   -1.16556412954761
O          -1.68818839199806   -1.92218792378930    0.25833448551136
H          -0.24049157880018   -2.43628320475997    0.05398012412536
H          -1.51216358189025    0.82009844972678   -1.37214010872984
O           0.72160322214233   -2.73238750193706    0.02006562242592
H           0.69274373779188   -3.68986436627353    0.04853550963389
O          -2.26316297602807    2.17528741151274   -1.23005159635482
H          -2.94441592768927    1.73467072970800   -0.69666824572332
O           2.24561661823473    1.11015520998216   -0.14071154650779
H           3.07224274602484    1.50794734808120   -0.41594996150832
O           1.44006338831890   -0.75100284636022   -1.80033241203114
H           1.40127278347615   -1.59310198351670   -1.32128643014532
H           1.98237178561985    0.47366164047388   -0.86130585444343
H           0.50984051579396   -0.47786761717308   -1.86401452871750
O          -0.24018088021622    2.59264778078611    0.52433071301271
H          -1.64429189668065    2.61732606063087   -0.61302705679055
H          -0.62336492524413    1.79504959460304    0.93682138554450
H           0.62187122841643    2.31629359115836    0.19071080986286
N           1.20570984143608   -0.63950187735956    1.62722265285381
H           1.77819056436082    0.05959922850050    1.11109335355283
H           1.23323954226661   -1.55658229507708    1.13668298186071
H           1.48125051410194   -0.71418188523608    2.59961063902829
H           0.16067873185219   -0.29808774699434    1.53524522045838
