    26
        -50.46422799  Gyration_radius:  2.57425953697 Dipole_moment: 3.107
 S          -0.31458542220341    1.00779927910358   -2.05588660268475
O          -0.00264424001007   -0.11847644051649   -2.90631894228965
O          -1.03090188356317    0.61808225341083   -0.83799380955465
O           0.82467901649198    1.84011394313165   -1.72273066381885
O          -1.32688588270337    1.89599108497799   -2.89597412949215
H          -1.39254890582436    1.37765102205194   -3.69135226214475
H           1.92296743236396    1.44739033709346   -0.63827689435815
O           0.26327545244563   -2.34621778824051    0.85354388790097
H           0.66030576805003   -3.17871148832540    1.11098713160469
O          -1.83219358917581    0.54466030318734    2.91803519844623
H          -2.47771506742655    1.25211584079280    2.90310837440341
O           2.55627934875880    1.08528436042630    0.03640509675362
H           3.39406484731753    1.51710040980441   -0.13541035515994
O           1.58165026343028   -1.32217430822388   -1.15680479333206
H           2.09171748922422   -0.57712037133271   -0.80755746842459
H           0.71043676999216   -2.07242406440254    0.00772649008703
H           1.02469527012242   -0.96374671798237   -1.87806302430441
O          -2.32012236897400   -1.10459515340080    0.86360130342727
H          -2.09182140467139   -0.51121562072002    0.12978489946209
H          -1.62150938407534   -1.77290451701453    0.86682211601121
H          -2.15083269297003   -0.12676949619924    2.26638382469688
N           0.32960721400904    0.31744543861370    1.38250203877770
H          -0.18801583249625    0.52255523300607    0.47664114916065
H           0.42174843590689   -0.71581714055069    1.42084850745300
H           1.25296357784353    0.75931999168070    1.32584825749187
H          -0.28461419185634    0.62466358965387    2.16413067986222
