    26
        -50.47298302  Gyration_radius:  2.48760545228 Dipole_moment: 1.896
 S          -0.75652051821150   -1.33984079978479   -1.49372388667118
O           0.64178998185228   -1.09397075090084   -1.14754566479040
O          -1.57373259023476   -1.56486816526102   -0.32034087409391
O          -1.27378362619841   -0.33013112930082   -2.39504256224963
O          -0.77714794031560   -2.70080407681566   -2.30719674318322
H          -0.52063735166895   -2.41663957048689   -3.17804202488771
H          -1.27223076461554    1.14948352512532   -1.77158791535794
O           0.52821274478443   -2.28686171429302    1.16577787803724
H           0.83528328738631   -1.93522529203336    0.30228243049525
O          -1.23055989198236    2.02273067247234   -1.30272692850458
H          -1.78175670331804    2.62292767259217   -1.80733142481326
O           2.39659469725480    1.50280785090662    1.38075991126304
H           3.25586327402905    1.08298622673800    1.31716050759458
O           1.47105759821201    1.45025691567668   -1.05774938412948
H           2.07288838161726    1.58809039524882    0.44023022774394
H           1.26282296218440    0.50180121584803   -1.17269088419868
H           0.61979065950351    1.90304469713467   -1.15341307342198
O          -1.79922510306334    0.71868120142014    1.02060848797543
H          -1.88938602453498   -0.14201636266025    0.56021433185975
H          -0.40903221122851   -2.44893747501903    0.98231606901138
H          -1.64348514699960    1.36515543957233    0.30850713084811
N           0.37520602139671    0.07505933150249    2.35159083221833
H           1.19722345118531    0.66137562308730    2.04171008879839
H           0.50398491847504   -0.91761938775504    1.99272853798858
H           0.27835362612776    0.09156998218289    3.36055916069961
H          -0.51157373164521    0.44094396480541    1.88294577177147
