    26
        -50.46511721  Gyration_radius:  2.56917849548 Dipole_moment: 2.653
 S           0.72609020663392   -0.81631187478067    2.20717921581802
O           0.54755106714119   -2.24391049802677    2.05742719333762
O           1.78423670412255   -0.23515234396736    1.42689762035302
O          -0.54077012951454   -0.08839394736818    1.99942803265327
O           1.09067361969787   -0.58650856444849    3.74173834813771
H           0.66611442770633   -1.32669165429751    4.16416132308850
H          -1.57054789966379   -0.59407080666102    0.84949924884158
O          -2.11792504947604   -0.88605194040554    0.07790849072431
H          -2.93066183876335   -1.23813478087245    0.44281730935676
O          -0.02846524900622    1.08314142112314   -3.33771219910843
H           0.04377116333232    1.90454123398264   -3.82473930687675
O           0.28714160878308    1.90558559440286    0.56898427160525
H           0.98576380458209    2.32121637825747    1.07774839913983
O          -1.74045882190779    1.44793723128362   -1.35377788757513
H          -2.00526666870660    0.59738864669836   -0.96280490189568
H          -1.17788292565810    1.86370359987398   -0.68727807188112
H          -0.78503363655606    1.19968145945024   -2.70857803902481
O           0.25397047869445   -2.11016974875539   -0.55899927043359
H          -0.68924170126630   -1.87606544451296   -0.56282752625264
H          -0.06616379462642    1.19304529081164    1.16251174128514
H           0.46399337316351   -2.29481810766597    0.38174077678785
N           1.37765384018398    0.16548590671188   -1.25201801830769
H           1.05877742721248    0.82801562354684   -0.50638871653736
H           2.38961310227818    0.10360889195096   -1.22734612019467
H           0.97382390937384   -0.79397701061548   -0.99809902603010
H           1.00324296223858    0.47690544426755   -2.17747288698452
