    26
        -50.47298396  Gyration_radius:  2.48773806641 Dipole_moment: 1.921
 S          -1.58001924964857    1.38000820655707   -0.45250414138427
O          -0.14196040127399    1.60871644311032   -0.57724974359336
O          -1.98199396136291    0.12008861373660   -1.04074855546821
O          -2.03985440400086    1.57586183346198    0.90742027842798
O          -2.28214003283636    2.50794993016239   -1.31778842384604
H          -2.23687009031733    3.26126897625044   -0.73866208699261
H          -1.38631958352340    0.55681453762101    1.96160972094877
O          -0.92944120970248   -0.11148474875378    2.53507016680313
H          -1.40937784752280   -0.12358465449108    3.36469224452026
O           0.17757383463335    0.01378668360424   -2.61239552692875
H           0.26712035404755    0.75288266126935   -1.97271532718877
O           3.05349081572469   -0.63849223920864    0.41998984793691
H           3.67300487379914   -0.07758404921998   -0.04894864931066
O          -1.04982189792572   -1.86825862255588    0.45668603751336
H          -0.95581977066148   -1.42050290004485    1.31690880624075
H          -1.54269470636201   -1.23171252296260   -0.10253053611616
H          -0.76954382381905   -0.17929799290493   -2.54829471360427
O           1.39200848088858    1.03194185070607    1.54001313290824
H           2.47380995872350   -0.01529808975360    0.94173497325018
H           0.88267950679976    1.35754909552316    0.77144482130021
H           0.73576820596297    0.59644310247068    2.10436123175299
N           1.14598605373983   -1.83979916415353   -0.98923646424833
H           0.84339672765361   -1.15003430366394   -1.73985337116419
H           1.95195774536533   -1.42537610435717   -0.44691483093727
H           0.30624459696546   -1.94850604466833   -0.33884971960095
H           1.40281582469049   -2.73338050772925   -1.39323920122478
