    26
        -50.44128639  Gyration_radius:  2.56633064597 Dipole_moment: 7.934
 S          -1.66222264635503   -1.52408072629767    1.00257556496801
O          -2.25897547264005   -1.10199294440081   -0.24544545234894
O          -2.37862726162179   -2.44710513300361    1.80181756683970
O          -0.24157524370767   -2.07509270548901    0.68599608259923
O          -1.31646012900400   -0.25739024838120    1.83400411291078
H          -1.61295535601105    0.54809929883630    1.29285807943395
H          -0.20017091973190   -2.23580212569016   -0.33255345597750
O          -0.39368397412726   -2.23656189215912   -1.81053933639242
H          -1.30515799079048   -1.91748491362622   -1.73509746779336
O          -2.12411851348071    1.51728391055076    0.21342879526958
H          -2.45580867424157    0.75635015034748   -0.28945181293172
O           2.21011712089152    1.15085228530069   -0.15555119674050
H           3.15220816189859    1.32339834451967   -0.14953780510948
O           0.90565877987053    0.03305827531187   -2.34837085876417
H           1.49575400375292    0.25900628256041   -1.61047915193331
H           0.30990572100338    0.78409607193334   -2.43243896801644
H           0.13995249824968   -1.47062933103859   -2.12883666126250
O           0.04327277953769    2.50599793811396   -1.08878433015657
H          -1.37506414266598    1.88957416048595   -0.29683090639268
H           0.11743561369610    3.45647971176313   -0.99301897352962
H           0.84037759976749    2.11409860896901   -0.68121221566290
N           1.64079513378338   -0.25762992328906    2.00085068433707
H           1.13566107620061   -1.04692624543343    1.60359479147193
H           2.00644773922616    0.62249375068092    0.67621915703747
H           0.96773572663055    0.23718094659632    2.57534253746047
H           2.35949834985869   -0.62727355715385    2.61146120071535
