    26
        -50.45774246  Gyration_radius:  2.54391924749 Dipole_moment: 2.955
 S          -0.49449846949919   -2.21666728387511    0.05636951424517
O          -0.92813661670241   -1.77614837233132    1.36070999806335
O          -1.31628499930117   -1.64592137818304   -1.01158669111054
O           0.92421928571809   -2.03195819944857   -0.20399120611487
O          -0.73823378008249   -3.78699393803137    0.01508283625156
H          -1.48986301223417   -3.90372773849750    0.58794429980989
H           1.13389360540980   -1.24063343927571   -1.73328940671233
O           0.71248727221250   -0.71116993796531   -2.44150350919592
H          -0.20370385794407   -1.03225853917023   -2.37571704467385
O          -2.02575654594312    0.73241420992107   -0.25337331806905
H          -1.80614349444746   -0.21549517743903   -0.43363826359327
O           1.74703467825304    1.63804653927994    1.11782753193536
H           2.67726115922584    1.83132959135845    1.23911772651938
O           1.41748808294274   -0.75901516472904    2.04759275131619
H           0.47925524089597   -0.96068161627201    2.20551069556968
H           1.58927787912336   -1.29164780254429    1.24964392119796
H           1.59873303316691    0.73725297590704    1.53401234310200
O          -0.77660212333689    3.01369696476261    1.02913282125476
H          -1.37967816018039    2.26477221589601    1.06935519842847
H           0.05696329852662    2.70507902502926    1.40185876195172
H          -2.91658817603021    0.86766425299541   -0.58047938097299
N           0.35906171646329    1.57218293175945   -1.19270531717551
H           0.59695985948875    0.70788006471187   -1.77867250439588
H           0.41995912691537    2.43429466243159   -1.72435963737540
H          -0.61764812858865    1.44010633410316   -0.83563204487539
H           0.98054309558684    1.62759880940052   -0.34921006560977
