    26
        -50.47039553  Gyration_radius:  2.41534038037 Dipole_moment: 4.720
 S           1.75870310510719   -0.62718327518578   -0.80109974249805
O           0.89067776051975   -1.80655142109232   -0.75040304144695
O           1.23068895334192    0.41826382164843   -1.64165177311128
O           2.10879786993420   -0.18958228283772    0.54078913095261
O           3.10645207158413   -1.10422227555055   -1.47978115351543
H           3.47114221835132   -1.69097144621357   -0.82624295453980
H           1.20239788183401   -1.40120014044815    2.00127407532657
O           0.40178050008944   -1.90252933785156    1.80013256413325
H           0.48875183924910   -2.05483126812588    0.83073482437459
O          -2.44049110298632    0.44020850931131   -0.59769919654570
H          -3.35570956601551    0.39704170582974   -0.87701280609431
O           0.67079087110656    1.82191717656323    1.54332587209859
H           1.34201074335166    1.18194396599255    1.22367895838301
O          -0.36740117316371    2.42162388167591   -0.81580247029353
H           0.35993409251822    2.28568548655434    0.72964323255504
H           0.27498212479129    1.82479830295535   -1.24265596055805
H          -1.20648883044163    1.94176008722401   -0.81771442583498
O          -1.01333550537746   -0.89719165441493   -2.30918777628258
H          -0.42678882550834   -1.45999634270132   -1.76343796264955
H          -0.40008156841816   -0.22383823966249   -2.63322862108815
H          -1.92453374970766   -0.10783701683961   -1.26098998757797
N          -1.26652953666840    0.14140216437627    1.84392212752782
H          -0.72580104342100   -0.77298957744715    1.87503925670089
H          -1.81358999365143    0.20198515495848    0.96241312733125
H          -1.86752299086438    0.24365099734830    2.65362039329268
H          -0.49883614555026    0.91864304393720    1.81233431936232
