    26
        -50.47039563  Gyration_radius:  2.41533911025 Dipole_moment: 4.715
 S          -0.21919665238490    0.36239107304493   -1.98663808982403
O           0.91734279852669    1.17532543750459   -1.54565601399281
O           0.00568330690721   -1.05083078194455   -1.81214893774617
O          -1.45633338419167    0.84410131750824   -1.39308557890304
O          -0.35087640366060    0.60200796082799   -3.54546148621256
H          -0.62685414058088    1.51086064585557   -3.59244400508606
H          -1.10765616942154    2.48336562379724   -0.12570886449277
O           1.54552325183239   -1.13791012162404    1.67941825283980
H           2.27295985427386   -1.42938272021836    2.23024297866322
O          -0.23990697813872    2.62565730103414    0.27380444898594
H           0.36335594006017    2.20820527925337   -0.38364898800189
O          -2.31135216926120   -0.45003245741637    0.77710440673872
H          -2.16465295214155    0.00054700861602   -0.08194063641694
O           2.45211918264890   -0.79075159603611   -0.73168135735170
H           1.91103126149212   -1.40559964521055   -1.24492961353303
H           1.93481317402503   -0.98653079426342    0.76736933176512
H           2.09507612554262    0.07706290805386   -1.01114634867853
O          -0.64816783933668   -2.46985430070841    0.38074647228713
H          -0.44531819429050   -2.12035358591476   -0.50680536976683
H           0.11388239186100   -2.24006941390076    0.92917246635719
H          -1.90816053060988   -1.34340313263842    0.66278250632995
N          -0.41332881815718    0.71369658077770    2.08445884458124
H          -0.24394151433871    1.56086945734282    1.46574955031742
H          -1.27883173209891    0.21351157920582    1.64204019151829
H           0.39319297987913    0.06111175626142    2.02387233096267
H          -0.59040279844934    0.98600460074488    3.04453350867696
