    26
        -50.46021174  Gyration_radius:  2.4857093009 Dipole_moment: 7.825
 S          -1.53011354537374   -0.45702863655186    1.55909298715189
O          -0.87522246239247   -1.65557588382826    2.00965009080513
O          -0.96277401387235    0.76285872688117    2.13858664164622
O          -1.62571806466965   -0.33199020174661    0.11037116577538
O          -3.02174915090261   -0.54709878150164    2.09125183315941
H          -2.90731392793163   -1.18426848787446    2.78758408468845
H          -1.35943984720141    0.89976238038077   -0.88040111021258
O          -1.10365263412546    1.68889133095256   -1.42811710929515
H          -1.91733865436034    2.02274414874798   -1.80764912090839
O          -0.28419989162968   -2.08887556389758   -1.51950862122033
H          -0.93226982018138   -1.59584333386588   -0.99086959055603
O           2.38457640858541    0.27733320260537   -0.21770309147516
H           3.31825400312469    0.27763493225699   -0.43112823306952
O           1.00326014111276    0.03068351360529   -2.36947768762878
H           1.89535730362523    0.13444645976781   -1.09471593992894
H           0.55535094911920   -0.84428482395027   -2.20640862512906
H           0.29278041784395    0.68245989155609   -2.30205300901073
O           1.35927545312972   -2.29066176654208    0.61468642349910
H           1.79067194245641   -1.43097961593010    0.52578718097316
H           0.60547554740158   -2.15797342628279    1.21705380973580
H           0.36086338935648   -2.41826225158538   -0.86007610971973
N           0.61024723203490    2.07503240877416    0.61104194784451
H          -0.02646630156811    1.54036136200097    1.31116628939439
H           0.91866250314203    2.95858243995084    1.00078360239935
H           1.41885307182798    1.44812666189489    0.37285738587310
H           0.03262994147310    2.20392531418553   -0.24180521484008
