    26
        -50.45730952  Gyration_radius:  2.4492661538 Dipole_moment: 7.990
 S          -1.60122211465186   -1.07408972279108   -1.46422843688312
O          -0.20729277713917   -1.53588067729947   -1.17989858531710
O          -2.40201186223884   -2.08293736410717   -2.06113001628328
O          -2.14826729603474   -0.43111559328818   -0.27725792020603
O          -1.38734931040280    0.11030533922334   -2.50174976196527
H          -1.22938599761730    0.87020332748777   -1.91631775325125
H          -1.72716156077998   -0.56215146927130    1.21565603853646
O          -0.51189624128367    2.15256696817289   -0.94321658550086
H          -1.08936561191075    2.91527146823251   -0.98706521561636
O           2.37377341696721    0.05970570926582    1.09896512656460
H           3.20890041199512   -0.14286304882535    1.52087039500681
O          -1.40802469691179   -0.57745727166512    2.16294379943481
H          -2.19330268757761   -0.68364182393449    2.70073271265564
O           0.07142837396895    1.62064533215677    1.54476971351159
H          -0.51788131967152    0.91496992391153    1.87418940439363
H           0.95585341370895    1.22655921394482    1.52664166581412
H          -0.38018113961467    1.96120191412028    0.03105466656409
O           0.77061055703745   -1.94571241632489    1.27347490889843
H           0.41419021695728   -1.99303362639592    0.36211861977559
H           1.78932350797373   -0.75904881598787    1.22098901430218
H           0.02485720714368   -1.61738136483861    1.80495283164115
N           1.46873252864629    0.33538816834187   -1.41946223053642
H           2.07199845163322    0.24396237912806   -2.22854008190101
H           0.74121751819742   -0.51291165706380   -1.37143002331369
H           2.00363796462310    0.31027092715176   -0.52405552802472
H           0.90881906698740    1.19717417065743   -1.46300674830192
