    26
        -50.44980540  Gyration_radius:  2.48738886068 Dipole_moment: 1.700
 S          -1.53192599636252    0.94760947109851   -0.44833582346951
O          -0.32167329744188    1.70562899819821   -0.23008254026323
O          -2.67565500790008    1.34464033438499    0.29261429522762
O          -1.87385113210664    0.95312957825966   -1.95094337735559
O          -1.23183141168283   -0.54284555733831   -0.15791612255239
H          -0.22671664444578   -0.76007704779671    0.00350120929244
H          -1.05033473371644    0.64367342418664   -2.43540692727371
O           0.95840108823148   -0.89856673822869    2.85622517732911
H           0.50581911068079   -1.60740241142556    3.31526137776384
O           0.21892738556740   -0.02415012384272   -3.05697190007893
H           0.22690479417644   -0.06346213189003   -4.01517528963176
O           1.16720726499872   -1.19315142659543    0.24817515118905
H           1.20573911268858   -1.16764919379862    1.23793076445398
O           2.26707702768559    1.10573405876340   -0.44797921777574
H           1.70810544687026   -0.42532343928589   -0.06025400286318
H           1.35816338823996    1.45739431320987   -0.52288909805616
H           2.68805933495986    1.59672856977622    0.26018341019118
O           0.09083046977704   -2.44384463920536   -1.96323716072590
H           0.24315617116806   -0.95802120650537   -2.73049473861655
H           0.71247769500191   -2.30581225805984   -1.23213578498044
H          -0.78354770727949   -2.40615277964506   -1.56408976452243
N          -0.81807756489237    1.08256025637363    2.53942836212637
H          -1.73178846553668    0.74955804130293    2.24933564994240
H          -0.96800591795629    1.77020691818687    3.26887768271082
H           0.31812181202763   -0.13660293369069    2.81602913326426
H          -0.45558221276309    1.57619792359097    1.72834953468308
