    26
        -50.45379647  Gyration_radius:  2.75461185008 Dipole_moment: 4.844
 S          -1.28039589971319   -1.91513574919186   -1.80274043492334
O          -0.50587636581469   -3.12299325860601   -1.66689668088074
O          -2.18205626373030   -1.69539169238962   -0.66881140491703
O          -0.46550791751580   -0.73121149703703   -2.06035853802142
O          -2.20447993346345   -2.09178546557000   -3.08506819296534
H          -2.48847100572015   -3.00005990203762   -3.03400980208838
H           0.90234283392004   -1.23561563525588   -1.20039098633006
O           1.42769876697549   -1.61791747555287   -0.46248538112970
H           1.29762694871620   -2.56447966774005   -0.59087682125235
O          -0.13068067063007    1.59068503176898   -0.76779198414275
H          -0.33955741832225    0.92992341204494   -1.45579811985451
O           0.94143521901274    1.13297703661754    2.64606477248312
H           1.41255517177440    1.46545109472268    3.41063182537436
O           2.29341408610135    0.99113731734794    0.19546042360234
H           2.37211053847651    0.06804094920981   -0.07476473507494
H           0.84171174404369    1.52244623912601   -0.62445004595915
H           1.98924572770971    0.97623081155448    1.11898193767755
O          -0.54845634819359    3.06781286089058    1.48242331104742
H          -0.58057607949580    2.68873477720026    0.58637240917583
H           0.38155935401527    1.87123977565736    2.32209437724949
H          -0.22375757798376    3.96376631338496    1.38048671074454
N          -0.59151704620369   -0.45978165640477    0.91261894574910
H          -0.51661592899641    0.46959368162741    0.42573857467361
H           0.28590524843673   -0.97650209922997    0.68711511462224
H          -0.70777203768459   -0.33773233401425    1.91452946969643
H          -1.37988513550674   -0.98943287813310    0.41192525571954
