    26
        -50.45021866  Gyration_radius:  2.46529766363 Dipole_moment: 2.807
 S           1.38042881689351   -1.52227930281935    0.44109190619247
O           0.66974270877900   -2.27032965999742   -0.57752512578640
O           1.78444865858389   -0.19637970132349   -0.01369871728017
O           0.66196851922034   -1.47891682665756    1.69909895019925
O           2.73547728639279   -2.29400775230036    0.70604908872982
H           2.44016678717924   -3.17996612106987    0.88776222069020
H           0.77003530876279    0.16007180253718    2.23290321299210
O          -0.11807159111987    2.91756497404565   -1.30306353140906
H          -0.80874544585358    3.32413872191598   -1.82867403598651
O           0.86683300632013    1.13083994022442    2.25860926581657
H           1.60954853189646    1.30955542068659    1.67448527545669
O          -1.01742326102943   -0.82886488086138   -1.92401936870170
H          -0.42912350644194   -1.52680524279254   -1.54146526320267
O          -1.22617949820632    1.76750917838627    0.73123033570372
H          -0.50474087268836    1.66262395459936    1.39492548944512
H          -0.55743564588578    2.55420098285417   -0.47860102363300
H          -1.59040882610165    0.87712953463834    0.61726303283255
O           0.89993716417142    0.76864621862296   -2.13569118027317
H           0.55161376560846    1.70672355491356   -1.85385062239066
H           1.38923248330059    0.38520309624144   -1.30522011097220
H           0.05653819430337    0.14761878195292   -2.19007618474842
N          -1.98545555558769   -0.98814910348031    0.72479740015465
H          -2.36766615628645   -1.84875012845159    0.34535833092589
H          -2.55763530840361   -0.76460261933484    1.53351490884525
H          -1.05988823881251   -1.23049482238587    1.08734673628676
H          -1.59319731498508   -0.58228000016974   -1.18255098986637
