    26
        -50.44131475  Gyration_radius:  2.6886822742 Dipole_moment: 5.683
 S          -2.58258352472376   -0.71817685687537    0.59230158819624
O          -2.52719303984795   -1.34322940846672   -0.70328705321638
O          -3.34901879633658   -1.34963770623603    1.59873770919998
O          -1.10158194186635   -0.53563682555445    1.07710126391345
O          -3.04880704680805    0.75010234869080    0.44374562950809
H          -2.44613450402466    1.21536218268131   -0.19980655004038
H          -0.47001243241285   -0.99597845745473    0.43095068490224
O           0.53763789945379   -1.70932824239295   -0.48975630614255
H           0.31852700098691   -2.64270727232533   -0.47622588495542
O          -1.41355899209422    1.88797256819044   -1.23426043217073
H          -1.86179615708836    2.48615353351257   -1.83483476769897
O           2.85859363293056    1.45822254538583    0.86110959235213
H           3.28802807209222    2.10710908631517    1.41983820459082
O          -0.83647012171491   -0.30950285368131   -2.45494115397498
H          -0.03953677255444   -0.69209508042772   -2.06319811160434
H          -1.56696859194234   -0.79097071018925   -2.01326258960434
H          -1.11771972775225    1.09851023871051   -1.78389319784324
O           0.21309678078986    1.95560206621050    1.06084628861173
H          -0.21033274444531    1.14282846574835    1.36623430546718
H           1.90057987319342    1.66769913758552    0.89832346798354
H          -0.22880425095148    2.17446304413905    0.22956292492407
N           2.82758440716001   -1.39319468186007    0.70221366394678
H           3.63860512524709   -1.74623315181337    0.21023511148631
H           1.44841731925992   -1.59785150857813   -0.03579237107202
H           2.85634320926065   -1.74492316770855    1.65103253395509
H           2.91310534423531   -0.37455929369723    0.74702545932487
