    26
        -50.46306621  Gyration_radius:  2.54533046496 Dipole_moment: 3.920
 S          -1.23553386227554   -1.72682035343489   -0.74665474402824
O          -1.23203025540800   -2.06920852398460    0.67539443557039
O          -1.28214434603765   -0.29275927465518   -0.95400644443485
O          -0.14750051130031   -2.37248290977128   -1.45294199398260
O          -2.57782426145899   -2.30751937117922   -1.34756243427068
H          -2.38926483480436   -3.23992156486807   -1.36190206455839
H           1.42196020060906   -1.85971827830895   -1.15724457762350
O           2.19104851171492   -1.39701313707013   -0.75056290474611
H           2.09475634566300   -0.47182508476749   -1.02128235559381
O          -0.43127112984481    3.37302223337996   -1.02574221994511
H          -0.98627727553208    3.54317958821015   -1.78764324432903
O           0.86913084685605    1.30585751917127    1.69210172994505
H           1.35896243717221    2.07617195323322    1.98226870239343
O           0.96986392519392    1.08950668927339   -0.92479800064053
H           0.16374790350036    0.54019877575112   -1.04653408847591
H           0.66656988631984    1.99812178325791   -1.13738030853944
H           0.95688994263028    1.27704458759057    0.69719676020541
O          -1.78797865197255    1.80876062843305    0.68834011813224
H          -1.01589610812255    2.93936368028530   -0.35960987895287
H          -1.80785540201503    1.02506015844248    0.10977730737592
H          -1.10238276792293    1.62410673624470    1.34281458245619
N           1.07481577985266   -1.37986830801462    1.60899516937675
H           1.02186422061234   -0.38188430045923    1.89150223152150
H           1.67200014926379   -1.43874196016968    0.71698811643383
H           1.43983517862315   -1.96234201240719    2.35408185288471
H           0.09451408872204   -1.70028925416382    1.31440425377759
