    26
        -50.45053743  Gyration_radius:  2.58592259526 Dipole_moment: 10.313
 S          -2.27002155958726    0.16189388758954    1.49640075993241
O          -2.37582682362725   -1.17576147994405    0.94999782994764
O          -3.50200615621328    0.80322052132053    1.82399233215191
O          -1.47923889151037    0.00015824956511    2.90528056829795
O          -1.33272566175439    0.97712862130382    0.71079856774270
H           0.08547229887261    0.79280297295489    1.25148164412793
H          -2.22083918338663   -0.06539487709690    3.49595947357095
O           1.03080819423556    0.64076189462859    1.56408767879651
H           1.12758090450593    1.18872897770452    2.34334658931069
O           0.90176885515025    2.01939189675223   -2.44561680219674
H           0.96972477127205    2.05432595369852   -3.40047256260964
O           0.69002002364388   -1.78974379512277   -1.35904481684360
H           0.77132340618340   -2.66735510341303   -1.73238430991395
O           0.05609084344875   -1.99124376600887    1.11576791920398
H          -0.91484397320210   -1.78207723660139    1.08426673350394
H           0.40486153977907   -1.92149273304058   -0.39533645430791
H           0.45440454666043   -1.24472528309186    1.58203171105738
O          -1.06243207806340    0.42697495014897   -1.86136520271146
H           0.04832564413415    1.53061357589084   -2.24785624237850
H          -0.67912930076297   -0.45905293030182   -1.80081219419563
H          -1.30654437875115    0.66289477878885   -0.94113594509761
N           2.15125456093215    0.36965156795584   -0.82957779387677
H           1.80142699751827    0.57674227028934    0.14208860109477
H           3.16362576306439    0.32254725690356   -0.84963645153437
H           1.71430570083529   -0.54291511612731   -1.11250280288144
H           1.77261394662423    1.11192495525737   -1.48975883019085
