    26
        -50.46949758  Gyration_radius:  2.56257175847 Dipole_moment: 5.890
 S          -0.26340545425155   -0.39196870158004   -0.29989943238642
O           1.11380659468477    0.11584152271335   -0.45549395216773
O          -0.66956091511423   -0.09782701714029    1.17257756552924
O          -1.18504800422233    0.40878733795707   -1.09868668359785
O          -0.34780430875176   -1.80889712982535   -0.54277236938621
O          -0.50892585277381    2.06523094821249   -3.04861781533508
H          -1.31805876522816    2.48033933213411   -3.35280716301180
H          -0.79028368355075    1.32178284176548   -2.46933111592278
O          -1.41076647899462    2.48913745950906    0.50514626987853
H          -1.37835675362628    2.09917082653984    1.38310101166444
H          -1.53610771499666    1.71812477319720   -0.09327914291209
O          -1.01480529917822   -3.58190597397924    1.32340737879254
H          -0.79961950950572   -3.02106899633664    0.54879776529008
H          -1.97097581479748   -3.62453874103900    1.36372396574584
O           2.28342693150923   -2.08420755722592    0.50429019807324
H           2.00825965804240   -1.24350752860344    0.09441262747897
H           1.81115944659783   -2.76229786381163    0.01248081415573
O           0.59016618334167   -1.79517391340835    2.54503320919654
H          -0.15858357181989   -0.75306137474495    1.78176772818159
H           0.02443861638517   -2.57484823105365    2.37497556530176
H           1.38101413485102   -1.93355097193712    1.97412736429266
N           0.85749491967727    2.63496190926988   -0.84020485057551
H           0.47970382356667    2.65857319438120   -1.81650549959221
H           1.10025459220391    1.59645198329873   -0.66681652418536
H           1.65202326107170    3.24988739390869   -0.70597960708249
H           0.05055398488073    2.83456444779994   -0.19344728742609
