    26
        -50.44450128  Gyration_radius:  2.58052140812 Dipole_moment: 4.958
 S          -0.67632931045426    0.19613869072296   -2.51708681158785
O           0.52658352475755    0.57939641782379   -1.80558726230324
O          -0.49292913051905   -0.30438626943236   -3.82801400144933
O          -1.44066648553604   -0.82235133931458   -1.63009102202550
O          -1.66275123276010    1.38641150591238   -2.52406112964501
H          -1.70663444592379    1.69411221813432   -1.59237353763477
H          -0.83007542599488   -1.56390945241182   -1.30373772047235
O           0.17957416623118   -2.60893612862901   -0.78170695989330
H           0.45654713345067   -3.16328383587366   -1.51388473979049
O          -1.08078124787684    1.63923197886360    0.01219738539096
H          -0.29320300531979    1.28697159099646   -0.43586177446298
O           1.31305064562982    0.08768991123273    2.14269711515746
H           1.61722786979325   -0.28491812164799    2.97105268144870
O           2.12077932225266   -0.97313624343912   -0.26572538337291
H           1.98065708413914   -0.57675636551114    0.61465956040536
H           0.98322552087670   -2.05896792325447   -0.52620309107494
H           1.78042619670670   -0.32047656257822   -0.90033985484103
O           0.56622384260204    2.71457355720251    1.87491572833169
H           0.90004338569387    1.81336565707459    2.05130976597932
H           1.29651190284268    3.20424634959261    1.49340319428707
H          -0.72536671066087    2.21128902681766    0.72223800940010
N          -1.06335466702993   -0.89068772182811    1.55811223368014
H          -1.76271164899967   -1.07492032283872    2.26587236578623
H           0.39385085299659   -0.29471521907135    1.97317276372142
H          -0.96150147769419   -1.72401434364904    0.99080606107366
H          -1.41839667922650   -0.15196705490388    0.95423642387931
