    26
        -50.44112156  Gyration_radius:  2.58350266078 Dipole_moment: 4.744
 S          -0.60785921826409    1.66300790076608    1.95940280946598
O           0.82964126794507    1.74036873687268    1.93078947303784
O          -1.26859234046813    1.97792124406037    3.18413099921227
O          -1.14846633725766    2.74740305400549    0.89385334462743
O          -1.05289198503799    0.37332347590632    1.36265474266887
H          -1.44881248961591    0.44410771830813   -0.23758743263604
H          -1.79492270054406    3.20193858940467    1.42368957940416
O          -0.69328605264471   -3.23221456263393   -0.08985751943153
H          -0.28564164195289   -4.08834552699084   -0.22758287697993
O          -1.61729178611011    0.44091073419054   -1.20851504714247
H          -2.56913782052185    0.41435093289757   -1.31368569283677
O           2.07600651125829   -0.69770866527326   -0.64093628637035
H           2.98563055346809   -0.60133853524913   -0.35570620421633
O          -0.16045893036847   -1.66172928371372   -2.09734247792737
H           0.74180648616534   -1.38906947551968   -1.88714063006775
H          -0.59517045170395   -2.72222874951374   -0.94397147805491
H          -0.71891598039949   -0.88089213480527   -1.90269124262347
O           0.57608183143569   -1.47895428594014    1.25140535970493
H           0.02741467411542   -2.23702649352808    0.82331298240626
H           1.23476188811014   -1.15936603841178    0.51193866084963
H          -0.10630947185792   -0.67568722349821    1.38260301660334
N           1.10193402272472    1.65034419810811   -0.80991607151805
H           1.70936179057520    0.27918247157844   -0.77034755447514
H           0.16256436145178    1.63356431938422   -1.19157435536623
H           1.01860317380211    1.84259622483539    0.19340608281827
H           1.60395066572588    2.41554137475671   -1.24033219116694
