    26
        -50.44922920  Gyration_radius:  2.46942656541 Dipole_moment: 5.762
 S          -1.89001937161584   -1.16989443310394   -0.17426986681068
O          -0.69934195752893   -1.29279809634122   -0.98548258980143
O          -2.62179422867176   -2.35375783596704    0.07210781621025
O          -1.47903836958979   -0.46535029473837    1.15629727156771
O          -2.80559817914934   -0.09520529197127   -0.79561697195612
H          -2.26756351169778    0.72189397205824   -1.00473305910691
H          -0.85843680018822   -1.07589727364764    1.71317033789152
O           0.21798442475832   -1.77970991845455    2.45880657941798
H           0.58066512538631   -1.18837140607941    3.12251383536817
O          -1.40659211316075    2.00322086693390   -1.42422838403901
H          -1.84566994692406    2.43519863571132   -2.15886706499823
O           2.18957038511932    1.19639644262164    0.01267364665982
H           2.79464253788136    1.93817784995564    0.05175131558574
O           0.65126673331856    0.67268605104392   -2.19739721365357
H           0.23707377031595   -0.16886111794885   -1.92700731354901
H          -0.57852779213726    1.56032611762496   -1.80199870773678
H           1.34012398896575    0.84172081009470   -1.52641425722679
O          -0.14186978022450    1.95204909103053    1.05947944419744
H          -0.64151747060509    1.14949171410157    1.27587470540877
H           1.37123213727081    1.48099002554998    0.48859399729503
H          -0.60591185204112    2.32986452097067    0.30017750620267
N           1.79830802418647   -1.74887200075828    0.39563603790824
H           1.03673021443470   -1.80283937353140   -0.27781704299979
H           0.91402881423405   -1.85298240666887    1.71912605752003
H           2.48359962192551   -2.45332561128043    0.15801351198415
H           2.22665558578099   -0.83415101721536    0.28961043867276
