    26
        -50.46827139  Gyration_radius:  2.47347115958 Dipole_moment: 4.491
 S          -0.78796808031786   -1.53000787060690    0.04371766733569
O           0.59078127359649   -1.38580777438580   -0.47418078585040
O          -0.85063131995647   -2.47975045367898    1.12523494912678
O          -1.28195410555705   -0.20557989698697    0.43395101988358
O          -1.66806114325486   -2.05882163406737   -1.11247889680576
H          -1.71704548801813   -1.35989967174256   -1.82425951783640
H          -1.13938292688284   -0.11403377529319    2.54860781343892
O          -0.55764457105775   -0.72784780392955    3.01443992231047
H          -0.72491390437538   -1.57190090934626    2.53305402480727
O          -1.63639555704130   -0.32125063971580   -3.04341976306513
H          -1.68929586587385   -0.82332166486151   -3.85878478086882
O           1.61999386269643    2.34763759340663    1.17220024598708
H           1.25038926106829    2.89757254775613    1.86518140388872
O           0.83395376608052    0.33005508189534   -2.48965135867051
H          -0.68879471310202   -0.02005013866451   -2.96015006900046
H           0.65216275174626    1.12244510322698   -1.95991266313014
H           0.90128362676840   -0.39031405541077   -1.82923541204623
O          -0.34807681544472    1.95682626102720   -0.60033124260604
H          -0.72051564141120    1.11273210544427   -0.21649951533265
H           0.95257375732647    2.32156947007145    0.45400723144498
H          -1.10403260452745    2.44205057134568   -0.93437480071950
N           1.65130102053296   -0.30628128367613    1.63307158540479
H           1.76996018311759    0.72284140316972    1.47001702109660
H           1.32532595426178   -0.77010627340292    0.72533332052716
H           2.51308643458332   -0.73042519577513    1.95978199650702
H           0.85390085501143   -0.45833108579444    2.32468060419607
