    26
        -50.46978697  Gyration_radius:  2.50705901042 Dipole_moment: 2.210
 S          -2.13981548686616    0.05537861606235    0.18668376779525
O          -1.82079494439331    1.21509768593695   -0.62927549206454
O          -2.06551235899648    0.33101831036434    1.60437037727599
O          -3.64779175301381   -0.31872387721469   -0.12076084681218
O          -1.36784221612787   -1.12198686826004   -0.19758677798005
H          -0.79819064086847   -0.75301160046026   -1.80148942000985
H          -4.12366852576710    0.32783677818597    0.38968320534736
O           2.75829816294205   -1.55950315627688   -0.45359068818485
H           2.74374571018216   -2.21888108477954   -1.14917566418215
O          -0.48863846915092   -0.23696810186314   -2.56687111539717
H          -1.00320351049220    0.57509691917999   -2.50967017022853
O           0.41227161162936    0.75899736988895    2.44436874422074
H          -0.55933799514927    0.67031112927489    2.34255105583655
O           1.90846765947852    0.59188423747126   -1.63897314400612
H           1.56602465211486    1.22610159192475   -0.98885647787057
H           2.54749129708715   -0.69203022588782   -0.90620950506569
H           1.11587986535468    0.26755760135122   -2.11929658521516
O           0.47575406441820    2.19315832475171    0.12168324196612
H           0.66260809291569    1.39847856171809    1.75504065298141
H           0.44243007557062    3.14450902167417    0.00821507346917
H          -0.40640660070176    1.84975069818038   -0.16819064807122
N           0.76836336000520   -1.56356901440752    1.28973068162977
H           0.78162424532580   -0.65366759403846    1.85246603362744
H           0.73445938932417   -2.36714549524267    1.90708125872425
H          -0.10452626408207   -1.50724428268777    0.70521390957955
H           1.60831057925040   -1.61244554486803    0.64285852265674
