    26
        -50.46978700  Gyration_radius:  2.50693629894 Dipole_moment: 2.217
 S          -0.69756713619699    1.05587995489842    1.73587163167090
O           0.05886308149046   -0.06150671605870    2.27572920783824
O          -2.07545144792834    0.71650612127479    1.45700600764575
O          -0.72778911872534    2.17267053271691    2.85841179594655
O          -0.03085993263842    1.67738950826040    0.59610886474000
H           1.62042218773800    1.13922527682119    0.72360071595220
H          -1.39988965692115    1.84731435396403    3.44789421742356
O           1.24598771778057   -0.07861424478722   -2.94691384220687
H           1.97607384367498    0.52484330739768   -3.09407107763279
O           2.38644891617456    0.57378117355509    0.92701937515806
H           2.13407980375121    0.14583601472277    1.75199090493011
O          -2.33369392130839   -0.97592943945401   -0.56721308281128
H          -2.46011106162780   -0.39058976467996    0.20970739984861
O           1.98454927753673   -1.42186255204457   -0.84766723174183
H           2.28952346549998   -0.71134947368735   -0.24246085749110
H           1.21525968539768   -1.81530767669885   -0.40559566091185
H           1.55078675059785   -0.68998567622352   -2.21548172632014
O          -0.20915218732935   -2.12509832073130    0.70558650340822
H          -0.10760561058229   -1.36009735255909    1.32568341645560
H          -1.66724907539451   -1.61938019138159   -0.26950457571971
H          -0.19750360577629   -2.91399012139258    1.25017633235825
N          -0.91631741136366    0.87538435458307   -1.75820718513836
H          -1.54140400053781    0.06560089675408   -1.44484614762200
H          -0.56588336212729    1.30790419512868   -0.86549361162991
H          -0.08507940912950    0.51150377459856   -2.30870881682386
H          -1.44643778207471    1.54987206500291   -2.29862253733917
