    26
        -50.47114513  Gyration_radius:  2.41076145948 Dipole_moment: 3.640
 S           1.10089845899274   -1.62674056367820    0.40646050968204
O           1.00299004444203   -0.89595136548509    1.65952841248683
O           1.83090974740637   -0.88390527297027   -0.60645157131323
O           1.95277523955951   -2.92436216133604    0.71966154006502
O          -0.18099592124020   -2.10935499034401   -0.07916460261980
H          -0.30991969329197   -1.62777694239945   -1.65756046498650
H           2.74289840285449   -2.56060142310289    1.10449410593530
O          -0.15857118315536   -1.11909159344879   -2.48621786036819
H           0.80205841261424   -1.03100523115726   -2.50425193788288
O          -2.08526834419160    1.22720924904005    0.74098262486440
H          -2.95186854578344    1.53388729732127    1.01010352501524
O           1.59460058062840    1.75940624984160   -0.77106152329761
H           1.86613792776461    0.81696238217454   -0.75060065838048
O           0.57920782234781    1.76542244853249    1.66742255660668
H          -0.37412648948045    1.77282737193168    1.50773824739938
H           0.81611900042163    0.82708425364214    1.79573395574996
H           1.38099691500769    1.96722467046293    0.16980534189731
O          -1.64715885659929   -1.08649490060803    1.84063689270268
H          -1.42427369558433   -1.65922413148426    1.08403705211798
H          -0.77234554776639   -0.94855197181561    2.23885575820391
H          -1.96941078641384    0.32483386017833    1.16378723368995
N          -0.78740209161492    1.30995705723541   -1.66471700570734
H          -1.17106129288717    1.94427786289841   -2.35603220113193
H           0.21303431012800    1.61486028055939   -1.35092351289746
H          -1.38637797861131    1.27747478870075   -0.81708077389272
H          -0.66384645553941    0.33163277532290   -2.06518562394486
