    26
        -50.47114488  Gyration_radius:  2.41083612568 Dipole_moment: 3.644
 S          -0.88097522948457   -0.38009128147664    1.76180697758799
O           0.42749414095461    0.16447903956736    2.08621395776908
O          -0.78877687959753   -1.65400749272489    1.06939960108834
O          -1.59376342513322   -0.66688512396658    3.14654294198838
O          -1.74086558414333    0.56438579197332    1.06877062452899
H          -2.31777140119382   -0.20791587121294   -0.27650822205140
H          -0.96197932436136   -1.22384537667256    3.58852623629820
O           1.16657855081293   -2.10103332095727   -0.67626519544497
H           0.47424516259983   -2.11849925650701    0.01850393551366
O          -2.38664592948655   -0.85242917689584   -1.01693045660365
H          -2.18642460243363   -1.69067491411269   -0.58322719520284
O           1.10325020146037    1.86174286952126   -1.31237916973778
H           1.37803138523782    2.65976754400856   -1.76528892747289
O          -0.00640521828496    2.52873470816894    0.94108846487783
H          -0.87720147283775    2.09255067982207    0.90450886368739
H           0.46702826338129    1.95574380186328    1.56609805601657
H           0.65885314748115    2.16524814639808   -0.46570172331819
O           2.47258417560819   -0.04398470381355    0.34350912083267
H           1.85906188630926   -1.50150955336617   -0.30869500326632
H           2.24307932153692    0.67979770293860   -0.25469511638015
H           1.84256716796892    0.02033744045880    1.08647138720672
N          -0.07153869163836   -0.43645797876011   -2.21600172880903
H          -1.06450683239828   -0.52881805876874   -1.84420767222545
H          -0.03842924441416   -0.58945807891541   -3.21748726504822
H           0.31887340386796    0.49351947384116   -1.96898161222795
H           0.50363703819010   -1.19069702040317   -1.67507085960523
