    26
        -50.45147850  Gyration_radius:  2.46474670181 Dipole_moment: 6.090
 S           0.60006887150746   -1.28922126731985    1.92918105990857
O           0.50353028833956    0.14079076084006    1.72287383402197
O           0.37127684311284   -1.74341411679707    3.25029388244341
O          -0.36162927030286   -1.97957980005936    0.91869453603659
O           1.95945875514741   -1.78039451203104    1.40816195911037
H           1.95286293946478   -1.54157677339491    0.43264138275213
H          -1.22342410088992   -1.47158881231472    0.79935107063083
O          -2.52500342361212   -0.65659574824627    0.53355465267002
H          -3.17299205087774   -0.85021571535282    1.21325073395321
O          -0.16572193872745    2.44871933519367   -1.24803292607211
H          -0.06360685263717    3.38503999594070   -1.42257354918072
O           1.80648355405039   -1.19083636516667   -1.09188734597285
H           2.00821304253836   -1.99613372744384   -1.57143406079999
O           1.99396129319171    1.44462427865242   -0.10106160649570
H           2.28419797711879    0.68271989778579   -0.61574852210707
H           0.69290795614642    2.14401583073959   -0.85327827050062
H           1.54546106281319    1.06413197887041    0.67728356969967
O          -1.57144806440531    1.69848305386327    0.97672529411895
H          -0.80791596084566    1.32537643055022    1.44932804628828
H          -1.19873287509259    2.05487901484885    0.14645570606926
H          -2.24707225052973    0.30279476042681    0.67464247350059
N          -0.56773307987086   -0.42524528715150   -1.89141497557929
H           0.85979960119877   -0.92107943065930   -1.36767701528397
H          -1.31325306012049   -0.75684282768497   -1.29028479011385
H          -0.56031055289476    0.58983125911902   -1.83530898942832
H          -0.79937871386707   -0.67868222399793   -2.84373616991844
