    26
        -50.46477380  Gyration_radius:  2.49521031524 Dipole_moment: 5.662
 S          -0.02224089881918   -1.31462189807334    0.41193874620954
O           1.23882969038998   -0.55190929547934    0.26746993426912
O          -0.09300386111404   -1.81230310639939    1.86629199620866
O          -1.16624070025374   -0.44404942342286    0.16867461033373
O          -0.01451607280116   -2.46718471381688   -0.47057042886000
O          -2.81273636666075    0.34430878979129    2.11595575923941
H          -2.32025841002308    0.10173120335681    1.30528900599362
H          -3.35052516651890   -0.41726810128651    2.33821970381011
O          -0.49524960285535    1.74532154129013   -1.16185397036136
H          -0.85839155953723    0.95938881811091   -0.70198610827310
H           0.05118882357804    2.17730467618303   -0.49430658687135
O           1.07861196934856    1.85580697743872    1.24052878458699
H           1.94689773869374    2.11705840079021    1.55120115622739
H           1.18039692096060    0.95093903176938    0.85561496427840
O           0.28449594768106    0.64097642752171   -3.39781347968175
H          -0.54815027452541    0.47825407836488   -3.84459789507495
H           0.04628488176915    1.16570342596835   -2.58479021338503
O          -0.32422898472862    0.40098487255335    3.11879503610712
H           0.11750093436001    1.06596363187218    2.55756116144388
H          -1.28425586141235    0.52603143769103    2.96177638061364
H          -0.13750215403182   -0.97521394461242    2.44441507432725
N           1.52425242779831   -1.32241459810882   -2.15739892035580
H           0.82973484850879   -2.01804280719693   -1.75750960479510
H           2.32179876271565   -1.75939704245350   -2.60613360333172
H           1.04361530372833   -0.60414998767066   -2.77747239798426
H           1.76369162375927   -0.84321843416828   -1.24929907466989
