    26
        -50.45147837  Gyration_radius:  2.46563874726 Dipole_moment: 6.118
 S           1.92325975544712   -1.02000749703395   -1.01306588147640
O           0.94898723729749   -0.08053160576807   -1.52799991930666
O           3.21193695133602   -0.96154961004466   -1.59573306180570
O           1.99114516765432   -0.83369955942273    0.53073365690259
O           1.34598169246718   -2.44118040431105   -1.10352695467489
H           0.51548830521125   -2.41032592822418   -0.53968889511359
H           1.90650328766705    0.13113796684967    0.80728141468495
O          -2.29898679367240    1.49060665881281   -0.26895558529042
H          -3.02420498299202    1.97149574605500   -0.66940483113869
O          -0.71926583056813   -2.27352882183871    0.42210288254288
H          -0.64897263252748   -2.99200034243858    1.05298259352274
O           1.69619896392100    1.60717155875816    1.26458460751791
H           2.53050868641527    2.07855221674952    1.23220410749437
O           0.24421642765636    2.39578106198310   -0.71522990601142
H           0.52293488421414    1.63486938793868   -1.25270899738837
H          -0.69545763984149    2.22242151801872   -0.50910770841458
H           1.11766972629742    2.00825585595364    0.54180130368105
O          -1.67703037803399   -0.65574643332019   -1.68101494412452
H          -1.68761432806402   -1.41915338915237   -1.09202310315800
H          -2.15219001687034    0.68746349322198   -0.83408019191243
H          -0.73191949956979   -0.44578653958920   -1.80075312190966
N          -0.87008555001715   -0.06604380772201    1.82286727529813
H           0.02973425828911    0.38148500258539    1.95410230805722
H          -0.72824256413835   -1.40972055220958    0.96918096397451
H          -1.30396473161656   -0.16580116649218    2.73201685764816
H          -1.44663036595380    0.56583520064134    1.27343513040685
