    26
        -50.46287210  Gyration_radius:  2.6453198659 Dipole_moment: 3.050
 S          -1.58608012841390    1.53578830258644    0.82665199974447
O          -0.74371050627440    1.16256322038903    1.95246770579590
O          -0.96389241275716    2.54143287943482   -0.01994313666002
O          -2.06536112811155    0.38870191022023    0.07225815698457
O          -2.89039739527917    2.20123211211979    1.44115672377459
H          -2.56569172995248    2.95184712245478    1.92941231454000
H          -1.52351139159621    0.60299964071482   -1.52684073366544
O           1.46332195019994    1.75497259148722    0.62389684022056
H           0.77536039948899    2.32903756807955    0.23518153012592
O           0.39132964329687   -2.49436515788471    0.10686331703684
H          -0.19038070035959   -3.03917707549223   -0.42701467583505
O          -0.93199227245766    0.93774141886251   -2.23409274094338
H          -0.83907594819580    1.86884192886976   -1.99545602900243
O           2.95840503267316   -2.34432806382626   -1.21000179176158
H           1.00157997736251    1.42694752863392    1.41422188316683
H           2.25605089112463   -2.64031641685195   -0.61561408066556
H           3.73574004866848   -2.86332101653362   -1.00164074583046
O          -1.29016191715380   -1.44829765021317    1.79509436627339
H          -0.18387798940961   -2.15822462682213    0.85334356283095
H          -0.91094772003944   -0.69939180638903    2.27981440556235
H          -1.82131798214157   -0.98701064055067    1.11787331426054
N           1.19685116143214   -0.20567689843184   -1.13943292299923
H           0.82558562527505   -1.04557439337837   -0.64048441298803
H           1.45221153859946    0.53718542083792   -0.42669648665881
H           2.01700428036874   -0.51239519818781   -1.66240127124949
H           0.43295866372977    0.19878729980126   -1.74861710208222
