    26
        -50.46571673  Gyration_radius:  2.43854952156 Dipole_moment: 5.130
 S          -0.30884876754134   -1.43601129513671   -0.83955703527270
O          -0.43511012223821   -1.07601051033582    0.58613440272165
O          -1.51306963148951   -2.03033913969893   -1.36007048828765
O          -0.11992194098152   -0.01943803336925   -1.57540877661066
O           0.92674027692535   -2.11935713490399   -1.10820912978480
H           2.08678933192644   -2.50684003170568    0.77733617663543
H          -0.94460934539563    0.50732658159637   -1.42142821403774
O           1.98207372626547   -1.72569788096177    1.33178425739132
H           1.01740899503337   -1.52931898585180    1.26594399874325
O          -2.33722227005782    1.26996608487498   -1.01051548444753
H          -2.88076683936647    1.44982534352729   -1.77953029968952
O           1.81584510230012    2.39770098578040    0.98464331886473
H           2.16082733449900    2.44983299985022    1.87768178445620
O          -0.62808462790019    1.49963040924608    1.21828265386185
H           0.85126554666698    2.16715213055041    1.08264728373230
H          -1.26024501904525    1.80386184930995    0.55690619482438
H          -0.55874068549941    0.53026314270854    1.07980317128994
O          -3.22981028087967   -0.84915232242188    0.19457518016630
H          -2.72069048491509   -1.42822068045998   -0.42222621361576
H          -2.76224166511115   -0.92568692844163    1.03148491071192
H          -2.79213867457165    0.52458417718636   -0.51737167641314
N           2.35250363728500    0.21876459982319   -0.40423710221980
H           2.25502034744515    1.14357655415351    0.11198638314158
H           1.51207380512401    0.07924925575967   -0.99421631519935
H           3.18892305981786    0.18470965360654   -0.97810399740795
H           2.34202918174892   -0.58037079467604    0.31166501640040
