    26
        -50.46519387  Gyration_radius:  2.61189803524 Dipole_moment: 4.385
 S          -0.42971134134378    0.27926596972253    0.61518480814733
O           0.79513431850063    0.83678288294243    1.17172211649855
O          -0.15449025969338   -0.39783531802769   -0.67046748628853
O          -0.96039690055472   -0.81316089424689    1.57844880306830
O          -1.46488708231435    1.27715878894446    0.43498885323770
O           2.11840187450106   -3.17191087751694    1.06216203187457
H           2.23456517838811   -4.06877891236718    1.37936440996807
H           1.30547779198538   -3.17608087320663    0.50688359543842
O          -2.54509813004732    1.97261529106844   -1.85516957515779
H          -2.26029558695098    1.76840342591705   -0.93161622376618
H          -3.23859034190046    1.34295754534774   -2.05813171450049
O           0.72854088572717    3.08705735494877   -0.15276159326894
H           0.89678602746837    2.30160593925406    0.42145415909084
H          -0.10685558536884    3.43940865013830    0.16752351033114
O          -0.25982336196634   -3.00662564802446   -0.16909106497850
H          -0.91568302423899   -2.98179719221777    0.53308799648146
H          -0.19917685226953   -2.08116465993750   -0.48285908081779
O           1.24056259855023   -1.27717043310112    2.74012286096809
H           1.68015920547450   -1.96835348680854    2.19297967261471
H           1.50940519687170   -0.42377668961757    2.36423873087094
H          -0.15458533428130   -1.07856145370104    2.14177277401539
N           0.05491950428949    1.63534150567441   -2.24276528355676
H           0.59299938632213    1.60942162870840   -3.10156922865224
H          -0.95893952086690    1.85287580134812   -2.39209976222964
H           0.06253418844288    0.70394811616272   -1.71618558140794
H           0.42904714523614    2.33837351864317   -1.53721773780757
