    26
        -50.46304608  Gyration_radius:  2.42262815735 Dipole_moment: 4.029
 S          -0.16810641328175   -0.49554099449528    1.84705956792091
O           0.05562716202320   -1.28265578795958    0.60753854226751
O           0.93932788671092   -0.61203646972965    2.75320054309325
O          -0.46655149081344    0.88223009914567    1.49108201928404
O          -1.43834907394791   -1.11409162062481    2.52628778619631
H          -2.13898894292879   -1.09910985988868    1.86191316549053
H           1.31838187073077    2.03359384799486    1.79114743418592
O          -2.49801893182070   -1.19082183159112   -0.05822624854185
H          -1.53139807864562   -1.30188713006535    0.04572697569381
O           0.37845139724915    1.08464911003637   -2.32166478569056
H           0.42899101754003    1.83917089256437   -2.90940833892238
O           2.15177749297841    1.54694859918329    1.81703842557783
H           1.92970611069365    0.76744027640785    2.36965292121101
O          -1.68665411909990    1.37081330261433   -0.79014363964091
H          -0.45265881658060    1.21773079611100   -1.76993247272722
H          -2.25538171421768    0.58640803972982   -0.79291268246388
H          -1.26466055993422    1.34484162282776    0.09604043114166
O          -0.23590764538845   -1.77739924242575   -2.19345264583853
H          -0.05199508255282   -1.82397305635567   -1.24912708839751
H          -2.77007363136864   -1.86146960247648   -0.68970574374749
H          -0.06912882083210   -0.86556246263211   -2.45805942593421
N           1.99423371197805    0.15397396336983   -0.41218834798086
H           2.83823054051726   -0.31411229778738   -0.72681778937117
H           1.50518370581274    0.63487930871431   -1.20849044913195
H           1.29810542634229   -0.54387126997171   -0.02413367326002
H           2.18985698886883    0.81985177729891    0.39757552956775
