    26
        -50.46846767  Gyration_radius:  2.39944013481 Dipole_moment: 5.641
 S          -1.43849417067157   -0.82373189473226    0.75163159885716
O          -0.72167010025036    0.15686850453662    1.60290779118991
O          -1.77016397354367   -2.02074203538931    1.47587546902389
O          -2.75128103824138   -0.12376610073456    0.28717984156133
O          -0.63938057166416   -1.09656486862508   -0.43756273102291
H           0.37270069924977   -3.25962064831779   -0.08865505390907
H          -2.47167008770628    0.60102606000867   -0.32224733194218
O           0.52557669332831   -3.18892967623715    0.85845980230237
H          -0.35113269840834   -2.91215386664556    1.21364639009275
O          -1.90216277229540    1.92145379088320   -1.19212601565238
H          -2.57102605676133    2.60649520698054   -1.14106358191591
O           2.18705570640275    0.89191040299724   -0.80278291132695
H           2.98173518354522    1.01406078804767   -1.32356010406729
O           0.18979165471119    0.40805716048964   -2.39371436088173
H          -0.16180934698670   -0.27243894670601   -1.77547881836241
H          -0.49212072749244    1.08997062408094   -2.39403798846367
H           1.45062365324441    0.71508583410792   -1.46211796028120
O           0.07851255550950    2.39023310410431    0.44281160785348
H          -0.23368169748902    1.65196441951558    1.01052166245731
H           0.91160141443917    2.08503951659640    0.05805256788495
H          -1.15152299099773    2.21448397053870   -0.60250675822691
N           1.63240266225176   -0.81288291626380    1.25337127048540
H           2.30704659388204   -0.77148387719316    2.01018697542447
H           1.35105185408483   -1.81365247707107    1.03164756299446
H           0.69963648889954   -0.35385118585869    1.52712680319791
H           1.96838108294365   -0.29683090912779    0.41243425272435
