    26
        -50.44648307  Gyration_radius:  2.45163066372 Dipole_moment: 1.434
 S          -0.20661839635250    1.77180802084438   -0.93917023809101
O           0.58105039541851    1.20555626036645    0.13228466685147
O           0.51212382983352    2.59516890173152   -1.84416379759943
O          -0.91681717422021    0.60911809352566   -1.69000873252549
O          -1.41503932551931    2.51255568064681   -0.34735731477558
H          -1.88583089859302    1.77475948813621    0.13828253933386
H          -0.27391088059443   -0.12225471864032   -1.93949478137034
O          -2.39549520706717    0.47055488774900    0.85316013859181
H          -3.32985516501108    0.45703441944349    1.07141514320184
O           0.71862134971247   -1.29147099914740   -2.25652245285058
H           0.99437756209534   -1.25119958646875   -3.17388836414692
O           0.75482876713540   -1.00530666354747    1.72381098971684
H           0.82712516166811   -0.20620750785416    1.17577751505421
O          -1.06640514022327   -1.98254225828038   -0.03431119036720
H          -0.60242229713900   -1.98581173241440   -0.87812277238697
H           0.15554927741779   -1.58750215914173    1.21578871477936
H          -1.59686211188758   -1.17471156421506   -0.01127949887755
O          -1.00902280831144    0.42471502937406    3.05463533725207
H          -0.54404348826504    1.25839023074204    3.14881315485526
H          -1.90118422787595    0.43359279990577    1.72706522446339
H          -0.32530133336324   -0.22518375762520    2.74259697133400
N           2.70773451350160   -0.52648895021017   -0.74124742001749
H           2.25006166382295    0.33347971886205   -0.44406005863121
H           1.53410636757710   -1.07663107163037   -1.69268771233213
H           3.63620325351887   -0.29752735607092   -1.07152527093486
H           2.79702631272513   -1.11389520608240    0.08020920947107
