    26
        -50.43947619  Gyration_radius:  2.63405979081 Dipole_moment: 7.873
 S          -1.21000431081419    2.48541763188524    0.12553450706801
O          -0.76829522596976    1.48865204864941   -0.81125397338628
O          -1.98215244025207    3.56762731952336   -0.36271743039622
O          -1.97287070566235    1.76165127404604    1.27732251334781
O           0.04208166067343    3.04967363335230    0.86206446997764
H           0.64740133514527    2.28218553464176    0.98751712406455
H          -2.03904235674018    0.77675592920394    1.11028986958918
O          -2.15340899569820   -0.81645048470913    1.09494620212385
H          -2.61091277226394   -1.04700915429392    1.90590943997909
O           1.07047202134054   -2.14265175197741   -1.11402456329352
H           1.17453613966288   -2.98690095034047   -1.55348811181792
O           1.72113558500563    1.04345518501948    1.22399170498015
H           2.46039947872704    1.42496751809133    1.70192918095401
O           0.37668471406126   -1.40543520512671    1.44930120023873
H           0.67043224071336   -1.77667748084662    0.59825719960716
H           0.79960472758175   -0.53577420632662    1.51187732354341
H          -1.20147369119351   -1.08469290631343    1.22694597415881
O           2.76599662000715   -0.04795312975401   -0.94488328378726
H           2.07216055569341    0.74702192222565    0.34446865681585
H           3.62418029312834   -0.46610911814877   -0.85519411623753
H           2.12471470328692   -0.76811713136274   -1.11921565133669
N          -1.21981546482557   -1.11370016752637   -1.79037958268131
H           0.18049686851988   -1.75720419569369   -1.43040851619955
H          -1.02366315924027   -0.13577002011341   -1.56827882142086
H          -1.60281162126098   -1.14182865084458   -2.72683157251904
H          -1.94584619962657   -1.40113346325986   -1.14367974337373
