    26
        -50.46516754  Gyration_radius:  2.53882501703 Dipole_moment: 5.802
 S           0.32206902922367    0.11030391785187   -0.51927298615000
O          -0.88727928283089   -0.87380073176670   -0.42553544292681
O           0.17882001035040    0.93907864596341   -1.68828879113504
O           0.34438600913057    0.87473230125989    0.72457121888501
O           1.48104858864298   -0.79493121026518   -0.58164280985653
O          -1.48648506315814    2.63840149937090   -0.06370916962621
H          -1.12015026705716    2.89767716562888   -0.91376893710438
H          -0.78991810218771    2.09960617951280    0.35788801379996
O          -1.94641277361625    0.90822983460236   -3.28550478831810
H          -1.10518009525904    0.98056928056795   -2.78768097748115
H          -1.78558641685393    0.28123531160305   -3.99155199071883
O           3.34103039662132   -0.21046073701340    1.28850121993255
H           3.68766797578760    0.67165833339140    1.14647408817624
H           2.76637691688121   -0.40011631990933    0.52040441858630
O           1.15670719264759   -0.45875834062072    2.83391271095748
H           2.10570215637427   -0.36730796904931    2.61116684564490
H           0.73025846691688    0.18243591246127    2.21853586032812
H           0.81274250901129   -1.68974100657118    2.06269760878711
O          -2.93506932489871    0.53544415875499   -0.80747984425836
H          -2.86973536059984    0.65767133388760   -1.77556019795420
H          -1.76063674821979   -0.33465435606858   -0.55767501466900
H          -2.61897701448892    1.38923751104996   -0.42884448162944
N           0.63113490618875   -2.39422154864722    1.23581745800331
H          -0.36729099064477   -2.47365935630085    1.04953815100085
H           1.06441786499106   -3.29997396606359    1.38415530886519
H           1.05035942703999   -1.86865584362671    0.39285254885979
