    26
        -50.44648310  Gyration_radius:  2.45151613205 Dipole_moment: 1.434
 S          -0.46563502499896   -0.01337483755956    1.96101289258692
O          -0.72481059788762   -0.81462659402365    0.78635108594714
O          -0.14736344754611   -0.74819832291845    3.13241294851984
O           0.66145245358401    1.00308782601057    1.61960004246923
O          -1.64771836345952    0.93777283403176    2.20073872107924
H          -1.65175377919140    1.47163243470409    1.35410273589212
H           1.45428282838521    0.55316770454056    1.19596638704259
O          -0.47341597070086   -0.77376860541282   -1.93150445551488
H          -0.55326640531773   -0.92372792094547   -0.97482786130438
O          -1.47816239422842    2.12126557702016   -0.06713320013615
H          -1.84570968378199    3.00203573278725   -0.16700379800946
O           2.65287941093795   -0.14276245848229    0.46681579175827
H           3.37180982290092   -0.29388352204898    1.08289383542020
O          -2.76562041361566    0.48313688419132   -1.62585048919352
H          -1.99020809316812    1.52891382223753   -0.69669671289889
H          -1.96824694662894   -0.01312934236145   -1.95005573610405
H          -3.25353754990749   -0.14246677462521   -1.08672323667209
O           1.02968813910005    1.42397246825917   -1.40791467896217
H           0.13305951835212   -0.00998914355972   -2.00181483252810
H           0.38230910740331    1.78029524431352   -0.78462705856357
H           1.76424368576452    1.08835407108981   -0.88339345156250
N           1.50080118830078   -2.42901963837928   -0.06568756323999
H           1.28090912657214   -2.51479743542106   -1.05165801302108
H           1.81436320663907   -3.33036966179090    0.27026021001655
H           2.28550820093952   -1.05325489884448    0.21162508296383
H           0.63414197155691   -2.19026546280868    0.41311138401829
