    26
        -50.43947777  Gyration_radius:  2.63423197894 Dipole_moment: 7.863
 S           1.30778745207595   -1.79175248254157    1.65449598113950
O           1.21274270520639   -1.37445151359741    0.28223928278749
O           2.32954519263309   -2.70645096643401    2.00779570603934
O           1.40642760105234   -0.51392751873670    2.54263401555523
O          -0.07009287612876   -2.38523658725256    2.07776548140390
H          -0.75119398763943   -1.84718668464674    1.61101608342654
H           1.40643073000072    0.31886808096635    1.98692521804434
O          -1.95790112275705   -1.00322816236968    0.85273366812128
H          -2.77942390001230   -1.40140172114172    1.14768737728001
O           1.30857039638620    1.75717196915458    1.29973255020506
H           1.31831037479248    2.38728685969876    2.02290818932037
O          -0.69664739931706    1.18032583457861   -2.25871716963020
H          -0.68963368669101    1.73862076943487   -3.03651602953935
O          -2.01658672303739   -1.12752789920199   -1.78685071048029
H          -2.86463888001524   -0.98695752652131   -2.21157128993862
H          -1.45854812021120   -0.35723770617038   -2.02260286663498
H          -1.89915994882915   -1.16102265139158   -0.12521156480925
O          -1.15798683452215    1.64652774466577    0.41818079610974
H          -1.07588325320457    1.58498915863119   -0.55025698627520
H          -1.46118796108348    0.77293733330094    0.70786979421629
H           0.37533267178683    1.75391498146870    0.94664450166085
N           1.75520152511366    0.71483780356597   -1.52806120527998
H           2.07092438337499    1.41678498297669   -0.86813790612864
H           1.59475317601129   -0.13043291691022   -0.97680863931167
H           0.27872474093594    0.99397261915217   -2.02500687685569
H           2.51413373407884    0.52057618932016   -2.16888740042481
