    26
        -50.44809200  Gyration_radius:  2.54164393727 Dipole_moment: 6.783
 S          -1.60004179752806   -1.76594774701643   -0.59314029586371
O          -0.19923139855555   -1.89104634725687   -0.92641619815659
O          -2.29970972631759   -2.95977199678838   -0.30571286446426
O          -1.68476233587340   -0.74989177302990    0.59299069510419
O          -2.33283209446777   -0.99940768853661   -1.71313414473674
H          -1.86399384280091   -0.14847430706698   -1.96402505639818
H          -1.01488685165251   -1.17307784297232    1.25645368217075
O           0.12467072769910   -1.92599816790355    1.83919900025591
H           0.42582428209760   -2.33645768143769    1.01996499249286
O          -1.25934721018656    1.28831280500586   -2.28298972056300
H          -1.93147290419549    1.79188551699648   -2.74586244084289
O           1.59897380329451    1.71588635373132    0.23848818209616
H           2.10911529231458    2.46820692448295   -0.06503512121982
O           1.26932661773492    0.14747371898074   -1.83581545200149
H           0.57526505022986    0.59051036192581   -2.33951153649735
H           1.55409766417096    1.08513348111026   -0.53233123481637
H           0.86305094681780   -0.68802094385662   -1.53117262480651
O          -1.10703711888758    1.94839829768764    0.21292328416525
H          -1.43978868425716    1.11030513250055    0.56740297024010
H          -0.14201396699450    1.94626363605617    0.37711049049665
H          -1.21851052947136    1.65389652986880   -1.34569646700280
N           2.00178626209351   -0.15543339881525    2.45213351658146
H           0.84251037224840   -1.27488087592765    2.11342407674520
H           2.94388043220452   -0.52337007631599    2.42048711035256
H           1.91955054598541    0.56356625464515    1.73609819914071
H           1.86557647428021    0.28193981392328    3.35416695752398
