    26
        -50.44809202  Gyration_radius:  2.54176717426 Dipole_moment: 6.786
 S          -1.35221622627963    2.03322607639028   -0.26867662886462
O          -1.55747263184813    1.14914398212442    0.85611276498274
O          -1.58603035925958    3.41025603698278   -0.05276257385573
O           0.10227691052901    1.77002083791677   -0.78012359841070
O          -2.19573099157847    1.55176925253829   -1.46690762580028
H          -2.07372268516063    0.57296939831912   -1.65095872634379
H           0.63809637469614    1.88822361219475    0.09574000360148
O           1.00343208902835   -2.11901253713634    0.24841276102519
H           1.04401257247637   -3.07121294757630    0.14825107284262
O          -1.79113111645647   -0.92925516333911   -2.09328482833305
H          -2.11177564410794   -1.03476897378845   -2.99086258917473
O           1.03132761266178    1.92506616185618    1.52701288894182
H           0.15657254885140    1.75008154709003    1.89388309438651
O           0.77709350448219   -0.63421985290119   -2.01469226049249
H           1.03051083228420   -1.16770643279448   -1.23406496685275
H          -0.78641499331668   -0.89193347382966   -2.14779833454782
H           0.77116530816079    0.28788862303499   -1.71732920478921
O          -1.51677519063245   -1.51381805901819    0.64118738528493
H           0.05815339804396   -1.90754457212287    0.48432278730713
H          -1.57586960198492   -0.56573540456393    0.87259140115385
H          -1.89902530910504   -1.57669953641690   -0.24291578980143
N           2.43389351378082   -0.27306644430941    2.01200372045767
H           2.01679782075946   -0.98097719501435    1.41089590567558
H           1.59521347638577    1.11657045382362    1.73402462842934
H           2.37544432244185   -0.59929099250661    2.96805776968869
H           3.41217446514714   -0.18997436695374    1.76788093348281
