    26
        -50.44974527  Gyration_radius:  2.55360894779 Dipole_moment: 5.646
 S          -1.64932855120206    0.11446153840285    2.09849011439555
O          -0.32830597858184    0.58442613496362    1.73909227428367
O          -2.09092438254547    0.36046348221666    3.41769819367335
O          -2.66963742276691    0.71560782240994    1.09670007872866
O          -1.70694158892243   -1.41036206693696    1.81808002710431
H          -1.10797911778760   -1.67149107192758    1.06049107713599
H          -2.26692545539000    0.85638898729343    0.19462211280094
O          -0.07406260326167   -2.22382166975244   -0.01976786974637
H           0.02780080559134   -3.16771644512997    0.11284824646024
O          -1.66124037617267    1.27838218356957   -1.23219646722717
H          -2.22834120288470    1.95627998775355   -1.60360469095320
O           2.17166779772224    0.64887711023428   -1.58594112087359
H           2.61810568296455    0.99264728285792   -2.36052761420450
O          -0.00609909385048   -0.68199270423450   -2.31216869175528
H           1.40797783639165    0.11106868123285   -1.92100006448643
H          -0.08393835276631   -1.36173174842197   -1.62370151193902
H          -0.70694012881026   -0.04291602160429   -2.11174383212325
O           0.46699623112738    2.27522029550149   -0.20359625733834
H          -0.82963927418923    1.74913091004984   -0.89310619149079
H           0.30539920783972    1.81171505626380    0.63778941225842
H           1.19354952912205    1.78694631940361   -0.64020593200482
N           1.96167087484786   -0.92988401077698    0.90716966326669
H           2.38148073697286   -0.40423985666446    0.14649952026459
H           0.78196861133533   -1.77479822022282    0.33000563945089
H           2.69906868901034   -1.29013685727601    1.49748501596695
H           1.39461753625128   -0.28252512924295    1.45058887828170
