    26
        -50.45730961  Gyration_radius:  2.44880636329 Dipole_moment: 7.984
 S          -1.78190658154469   -1.26482417713135   -1.03840176667123
O          -1.73406932856804   -0.79912315346705    0.38221645219908
O          -3.08557866466835   -1.65350818147231   -1.44422319839209
O          -1.10184489175943   -0.29574753854863   -1.88690414563235
O          -0.83012223926587   -2.53698969526872   -1.03637002555921
H           0.04617075837581   -2.13790688084095   -1.17101836302806
H          -0.79351919635190    1.21014842530038   -1.63885410504066
O           1.65540602554799   -1.45067643563252   -0.97083092058681
H           2.18021795287952   -1.70529580260294   -1.73033265184757
O          -0.51827928430235    2.15250272340202   -1.45028595414370
H          -0.74622073394130    2.65235834322462   -2.23475957253434
O           0.99732650116758    1.19450093172305    2.10238019212357
H           1.14936352737719    1.70351337194536    2.89871688015408
O           1.84689935356808    1.12344231042608   -0.58201031021123
H           1.71642677188731   -0.45249424881331   -0.91515504665304
H           1.08082331816935    1.57391017088052   -0.98678171629959
H           1.74230764777497    1.25073453656443    0.37235607924932
O          -1.31798688795242    1.73601645523974    1.11834968584888
H          -1.65611172264603    0.84123378020010    0.90635383373235
H           0.08330221906270    1.46836879974954    1.76142183938268
H          -1.12771460486670    2.13144136864076    0.25005932875246
N           0.46348452904142   -1.36896611222043    1.48370780799267
H           1.08841329580301   -1.64698394740772    0.71542475385224
H          -0.53567317091789   -1.16732353305434    1.02250357287281
H           0.39320098105242   -2.09612555524136    2.18603036995683
H           0.78568443507786   -0.46220595559502    1.88640700048304
