    26
        -50.46907325  Gyration_radius:  2.47663137944 Dipole_moment: 2.907
 S          -1.93700758171576   -1.07663911990071    0.27337679929254
O          -2.73802091633385    0.09861326871235    0.02723579480199
O          -1.51096786260653   -1.73846168965686   -0.95472795906463
O          -0.81496623509165   -0.84190553173203    1.17063251246770
O          -2.87624579789130   -2.10652117138638    1.03219426494824
H          -3.65985577136030   -2.06437225739163    0.49491330486488
H          -0.48922868060679    0.68673553381996    1.67697307966205
O           1.82159550507262   -1.45232654122668    1.03796418074629
H           0.89836231095412   -1.38495773164805    1.34019633251313
O           1.14004499412679    1.25276749263800   -1.81733969515967
H           1.26218282706517    1.80584002709503   -2.58962174318636
O          -0.22055445242243    1.60634305568446    1.91476132835875
H          -0.54896754098514    1.76302252892256    2.80067667500471
O           2.27326484366648    1.16636201223975    0.79449158879985
H           1.49635818806730    1.47334266144092    1.29027624525034
H           2.16715656905689   -0.52900405607479    1.08206162770359
H           2.05686588823645    1.30936356617123   -0.13766799946777
O          -1.05668153441595    2.01418996053218   -0.67908523959186
H          -1.76051441125173    1.34276336755826   -0.55662976238561
H          -0.77313026133347    2.21866761973850    0.22554954804514
H           0.26625953945274    1.53768200811207   -1.41207417691133
N           1.01771018217381   -1.42806160389960   -1.43073481096479
H           1.13438064521478   -0.43810137848583   -1.72694439617279
H           1.40781935649034   -2.07054589856509   -2.11039886159158
H           1.46917576606160   -1.54014872246565   -0.45585449086237
H          -0.02503557959851   -1.60464740023725   -1.29022416712612
