    26
        -50.43947689  Gyration_radius:  2.63377754503 Dipole_moment: 7.874
 S           2.66321743967266    0.54242828806147    0.51527021429914
O           1.46582126860816    1.14285563910253   -0.00613979731982
O           3.78895967093406    1.37345150569969    0.73321535383038
O           2.29311749834755   -0.21054666342262    1.82992793562695
O           3.07357084677062   -0.62593221627870   -0.43096494381638
H           2.23027940285036   -1.03924182625118   -0.73007249852189
H           1.32565816148406   -0.09270849312995    2.05885625659973
O          -0.19757074229941   -0.12631481952359    2.53872408853609
H          -0.20619627042602   -0.67933797320900    3.32245062352510
O          -2.45574697156780    0.42977375989634   -0.87068777065133
H          -3.36157430237404    0.73352141806971   -0.93322313599139
O           0.85775643450517   -1.77839466870392   -1.28812244912029
H           1.15677261184909   -2.49958083955529   -1.84574919836237
O          -1.21282042598829   -1.55243511851257    0.58658990429491
H          -1.76044758323668   -0.92851276398909    0.07754119489695
H          -0.44517903150866   -1.73975992389792    0.02561757959764
H          -0.62425366597155   -0.66406291419573    1.81471996503295
O          -0.73144224956691   -0.31499178863128   -2.81052205875569
H           0.36852246490217   -1.14640295597223   -1.87638112296754
H          -1.29048116290462   -0.78080408530560   -3.43493105355091
H          -1.33053693895021    0.07100799303483   -2.13791913237776
N          -1.11516470171147    2.07123630918165    0.63635112268374
H          -0.17262871613645    1.84315438427907    0.31423439760332
H          -1.95717938444230    1.11486671207344   -0.30276996584771
H          -1.15172286754147    1.77826737104106    1.60629063258363
H          -1.21073077529577    3.07846368014054    0.60769384817418
