    26
        -50.45004756  Gyration_radius:  2.53823060878 Dipole_moment: 6.004
 S          -1.15052320554344   -0.39307441780575   -2.32137930614779
O          -1.46617352421249   -0.46337786596018   -0.91133463985213
O          -2.17434515267890   -0.72325683132880   -3.23746636813775
O          -0.61453264693287    1.02984837213426   -2.62850714297412
O           0.07525711068528   -1.30858875003332   -2.58327589565539
H           0.69136687758886   -1.31158729263409   -1.79688568424940
H          -0.28575023795886    1.50298240635036   -1.81183641851367
O           1.65466538603459   -1.49232355656164   -0.53506221981168
H           2.23789955557332   -2.23743919152471   -0.68768527842979
O           0.30577466863350    2.38588952680118   -0.62350322568389
H           0.80414604048803    3.11169311913487   -1.00245949660229
O           0.04378393486548    0.41801802891202    2.72567476877730
H           0.03127890806815    0.94060887530274    3.52827783834688
O           1.89427304391647    0.91405278765654    0.78623761007865
H           1.33963917017711    0.70259165581503    1.56463330989726
H           1.97111880599036    0.08363622579029    0.28947274081990
H           0.95955870601660    1.83919001426963   -0.08481329679243
O          -1.72065073324277    1.40241485374084    1.02525039205763
H          -1.81489160127196    0.68326547053915    0.37531684715452
H          -0.68381908528889    0.77628733053023    2.15028261496677
H          -1.20833386140606    2.07532180028347    0.55835647375013
N          -0.22728935890040   -2.05801630020458    1.13195238892822
H           0.95388906835696   -1.78907905687141    0.15972851069958
H          -0.95704553499748   -1.65930071135084    0.54428545676786
H          -0.52446456394903   -2.97393776573001    1.44018607144599
H          -0.13483178001240   -1.45581871725434    1.94455393916048
