    26
        -50.45454395  Gyration_radius:  2.42328032159 Dipole_moment: 8.704
 S          -0.92767263280471   -0.34448318607855    2.16475298339409
O          -1.40963331231845    0.15694985200505    0.84283903375621
O          -1.78208252298852   -1.37651064948148    2.66085026386670
O           0.48737765964899   -1.01309998643400    1.83671307030750
O          -0.59782585215672    0.76020800822647    3.02464422594786
H           0.54385607332877    1.29877066226909    2.02496308156848
H           0.36125842153863   -1.76122115785965    1.24258245578644
O          -0.07059773865730    1.01828950082615   -2.43510097441212
H          -0.14373703174653    1.55554323089640   -3.22413464880751
O           0.85750443299375   -2.46760568273533   -0.47321649346380
H           1.53206948233603   -3.14679846104375   -0.45282253144428
O           1.26229661152924    1.62463910396998    1.42464102813676
H           2.02387301887647    1.75475400761909    1.99236124476279
O           1.86913191710237   -0.06939682692404   -0.67842902163257
H           1.67423959528274    0.43760206571047    0.13556211874201
H           1.33966435382648   -1.59238628572520   -0.53746173975846
H           1.36937926083501    0.36433727273714   -1.38432886197871
O          -0.67284800879036    2.40172916074056   -0.34376410559551
H          -0.31144398614446    1.62027046142431   -1.65948330712457
H          -1.12569606269619    1.69063451980180    0.15843191949525
H           0.13329998175882    2.54478990610850    0.17358949434983
N          -1.30009112356177   -1.11660933633424   -1.33099504731301
H          -1.42115855869821   -0.61935980412443   -0.34467618520698
H          -0.60260152821355   -1.86489844281570   -1.19222454112564
H          -2.18448143900284   -1.47492532243488   -1.67094915221662
H          -0.90408100127706   -0.38122261034417   -1.95434431003546
