    26
        -50.44023266  Gyration_radius:  2.54329375708 Dipole_moment: 6.124
 S          -1.58341307132615   -1.63925374250166   -1.06641753800423
O          -1.60791820260488   -0.75579541064095    0.06715337634673
O          -2.83132649602917   -2.08608926294057   -1.56811024630072
O          -0.75111345892228   -0.92406155400224   -2.18669465897454
O          -0.68169045229452   -2.85693368270749   -0.76069994302632
H           0.23981012913435   -2.48977925578436   -0.61504609670959
H          -0.83863425930925    0.05012686500033   -2.02542225447405
O           1.67834935662663   -1.84290500687574   -0.51537566000692
H           2.16874356982815   -2.17001507702977   -1.27224154138136
O          -1.01534054573855    1.63200508044063   -1.72586826449504
H          -1.85523224545056    1.84776434511432   -2.13518611613527
O           1.14065701935841    1.46523895801939    1.81901184878632
H           1.77284061323342    1.68429156947888    2.50402978551355
O           1.64473980879717    0.78026439220110   -0.78406445990015
H           1.65214924727612   -0.85289764296985   -0.62083397883420
H           0.89215642484405    1.10829098501322   -1.28684108254494
H           1.52988933139487    1.10744032740013    0.12826477277426
O          -1.02153686048245    2.68287710170001    0.70965956755618
H          -0.73627792790714    3.59773120855827    0.66734283390462
H          -1.10189843702202    1.90389295993701   -0.77572025710551
H          -0.33440656420537    2.20275353475601    1.20950232838197
N           0.32143824082511   -0.99480125626545    2.10699399048654
H           0.82669861589550    0.51756616190078    2.00208675789670
H           0.97956278066227   -1.64225463860199    1.68895501358719
H          -0.01611536699173   -1.40060317933115    2.97011198850803
H          -0.47213126959209   -0.92485379986866    1.46540983414592
