    26
        -50.45730954  Gyration_radius:  2.44915395162 Dipole_moment: 7.988
 S          -2.11244844213398   -1.17992868556603   -0.06244099953518
O          -1.67295363630259   -0.19734708656838    0.97613061745763
O          -3.51074636902675   -1.42330091452312   -0.03015952088450
O          -1.55069119075594   -0.80265134964358   -1.35229730722284
O          -1.33806807506816   -2.50718110858085    0.34192414647148
H          -0.48044865092449   -2.38713295068513   -0.09996107728758
H          -1.01845190652170    0.57422167068889   -1.84688110235202
O           1.19903408036651   -2.02634661034561   -0.49249815615716
H           1.49605627523615   -2.66977791524173   -1.13668635376973
O          -0.59874416358760    1.43250887074049   -2.14142583668668
H          -0.94715590011857    1.60624446077274   -3.01640978000260
O           1.60049282649420    1.71088173533372    1.16350356874276
H           1.99367582496685    2.45491895284147    1.61987794620739
O           1.77218770528723    0.38343460763459   -1.31544741719904
H           1.38625018006602   -1.12767867399034   -0.89333723109566
H           0.98775825938400    0.77766494612764   -1.74324376235958
H           1.91423896865770    0.90576475179297   -0.51240992394668
O          -0.80430096769415    2.27247217066008    0.43960221018347
H          -1.28423224326315    1.46014339061992    0.70351464767445
H           0.66963299187745    2.00536044369198    0.89230929775743
H          -0.78275284594100    2.23181727635720   -0.53218255702106
N           0.64345119379430   -0.71217086006362    1.83477165919842
H           0.66018996824306   -1.06034373490991    2.78629259605286
H           1.03051226243388   -1.40032474072778    1.17542153599995
H          -0.40676801520361   -0.51348849691044    1.50511574046809
H           1.15428185973973    0.19223985049136    1.73691706930684
