    26
        -50.44534754  Gyration_radius:  2.53764798674 Dipole_moment: 7.415
 S          -0.78553252527648   -2.10676351325687   -0.03488244005810
O           0.46105651037280   -1.66562360605698   -0.81058131834172
O          -0.73223556168496   -3.45669627643320    0.38795673989056
O          -1.03536029905944   -1.13647813208731    1.02407544461143
O          -1.88063949209910   -1.91982347243400   -1.10946330625690
H          -1.73946234753230   -0.98777443327444   -1.42166254085985
H           0.10340911361004   -0.17490497906841    1.64082623384408
O          -1.52665777433903    0.59667740121501   -1.67006751284312
H          -1.97998103915381    0.93885590560475   -2.44296065513430
O           0.83170219593568    0.41851146705143    1.94907536453889
H           0.78343203565070    0.43135055497235    2.90602411829804
O           3.33002576792047    0.73805860133476   -1.12811900716132
H           3.95399828175920    1.42517056882369   -0.89071048711605
O           0.87134902309231    1.68028043147569   -0.59347367884588
H           2.43573145812501    1.14451670198378   -1.07768415451131
H           0.17326872553308    1.20653520667211   -1.06774085641340
H           0.82086252678527    1.38582293744508    0.32613342508896
O           2.52190843669681   -1.18648079016203    0.53227861074786
H           1.33274755276824   -1.56702553332341   -0.24968544153106
H           2.98140576046210   -0.60262833436535   -0.11564583458770
H           2.11442108724486   -0.58178684718342    1.18025380225256
N          -2.69406591143565    1.15669288853765    0.61872230205281
H          -2.38302132339684    1.95222204746266    1.16146533031288
H          -3.69353636256723    1.06140863080400    0.74335898789948
H          -2.01655455954887    0.92903539890851   -0.85621978135864
H          -2.24827128984706    0.32084719536643    0.99872663550975
