    26
        -50.45212749  Gyration_radius:  2.45303643598 Dipole_moment: 5.989
 S          -0.12402492987387   -0.57349912136704   -2.22815823986061
O           0.57855777298900    0.58024869392941   -1.70422818025823
O           0.54895443262046   -1.28366302297786   -3.25412926762030
O          -0.45514377884257   -1.51191848620134   -1.03293359084535
O          -1.53362224802595   -0.15513666043768   -2.66020191935120
H          -1.97054076440303    0.15066297040955   -1.80357184903196
H           0.39967805507127   -1.81975899965402   -0.58577770824501
O           1.73832095405547   -2.14388208173086    0.10651315192745
H           2.30406007131566   -2.58024376426236   -0.53383674145800
O          -2.49516152601923    0.68067480902706   -0.43403530811811
H          -3.32515527008026    1.13915505669316   -0.58086779866714
O           0.73591697569717    1.35428671396470    2.07914188970745
H           0.86554615882515    1.59664393134898    2.99629823220720
O           2.47457197290591    0.33402063065615    0.19920890362652
H           2.01401808610391    0.77758603867019    0.93356951956314
H           2.11860947784888   -1.22123434214599    0.23225018845911
H           1.95532703550367    0.55666726415903   -0.59406011069833
O          -0.58709300520768    2.39020277902837   -0.09488436167617
H          -0.11418140013502    2.21076818144519    0.73673761342199
H          -0.06317173241092    1.94100482663015   -0.78288311736964
H          -1.81395439918886    1.39278791024471   -0.22649214964479
N          -0.72558491458352   -0.85328366543276    1.87040690813721
H          -1.27035218111385   -0.71560642638564    1.02449437309217
H          -1.35692330159927   -1.17204466300772    2.59499597017214
H          -0.06915242190327   -1.60134972578462    1.67690264381568
H           0.17050085045098    0.52691117320540    2.06554095873214
