    26
        -50.44534747  Gyration_radius:  2.53753317572 Dipole_moment: 7.418
 S           1.05329949854401    0.48446019362376    1.92662687875138
O           0.38468983242222   -0.86803892637593    1.65488980888362
O           2.17720064200571    0.39069824772884    2.78216845911675
O           1.30213917932794    1.13924225838857    0.64811468778568
O          -0.09657467274264    1.24433672589304    2.62617758515516
H          -0.85930206831265    1.13388549700108    1.99995888200230
H           1.43161938389578    0.34605843527460   -0.75044055594582
O          -0.77436298735356   -3.40009269904945   -0.86453828346342
H          -0.87690010517733   -3.84355927715464   -1.70750733697223
O          -1.93438696654408    1.05165423777824    0.79369148041352
H          -2.82543281393928    1.30546235418020    1.04186986530959
O           1.45798352503711   -0.18815387563078   -1.58199659464284
H           2.20909801478957    0.13055968321455   -2.08442514177709
O           1.52832717966650   -2.39055144242842    0.02576258548250
H           0.92255247941790   -1.52658686723461    1.05383736459584
H           0.75025881537225   -2.94186364963201   -0.22399762851842
H           1.63147143767427   -1.74671312119862   -0.69978881131420
O          -1.29776497147874   -0.79612217489593   -1.27093057865178
H          -0.40040167133862   -0.52259352377784   -1.50499299951637
H          -1.11678158431921   -2.48625731043722   -0.98731157799777
H          -1.52104269104072   -0.32257595027725   -0.45690939590920
N          -0.61685872315582    2.87702857433885   -0.56541603491828
H          -1.55479717028595    1.78790159302737    0.22215592648418
H          -0.58802814542641    2.82840996245123   -1.57584369538204
H          -0.62836392644033    3.85237530113230   -0.29690261500937
H           0.24235851940994    2.46103576404971   -0.20425227395945
