    26
        -50.45212772  Gyration_radius:  2.45267215763 Dipole_moment: 5.981
 S          -0.67531020815343   -2.19135679493072   -0.19053880021491
O           0.39374207625790   -1.58524380719094   -0.95787543440707
O          -0.41518434029138   -3.49937606177051    0.29035340937719
O          -1.02221157006727   -1.23144670300878    0.98295505434975
O          -1.97572965722965   -2.13351624631483   -0.99957837677991
H          -2.15365696229413   -1.14579414167180   -1.10507698772823
H          -0.21500379907276   -1.11485217632336    1.58369015231777
O           1.09126673193380   -0.90247697291807    2.37211970618400
H           1.38857553468693   -1.75968825608189    2.68415475232334
O          -2.26139501763896    0.40027435954662   -1.27640257484221
H          -2.94918344414757    0.59013102030556   -1.91794562808323
O           1.43765892372096    2.10242668682267   -0.45388281863208
H           1.79482004136210    2.98637325325188   -0.36493526936509
O           2.46800660278086   -0.35459555904491    0.25175328395266
H           1.89267558856896   -0.90484379695567   -0.30912105328056
H           2.28359898137167    0.56169611943415   -0.02129287084226
H           1.72147007157065   -0.64024866282072    1.63334351106773
O           0.06603766577088    0.68085004985885   -2.36477328430347
H           0.31629812365542   -0.20961370432435   -2.05771384906285
H          -1.38774137054943    0.60791528977373   -1.73193222921643
H           0.61614897963150    1.28945436480730   -1.84120293759192
N          -0.57410357233250    1.70906028343545    1.23482288423107
H          -0.18823212790363    1.17332529342501    2.00420683796924
H           0.67894287235364    2.01967163767963    0.19555939654019
H          -1.20430692749447    1.08994192385726    0.73403534614764
H          -1.12718320647192    2.46193263116914    1.62527780988423
