    26
        -50.45004755  Gyration_radius:  2.53826597607 Dipole_moment: 6.004
 S          -2.43876220510212   -0.95549304826168   -0.08536616194142
O          -1.54514489274757   -0.30074128856280    0.84501649927643
O          -3.73207341379957   -1.28946622833998    0.37536292139538
O          -2.54950533751351   -0.07174054562973   -1.35547978583285
O          -1.73726053546763   -2.24217334703679   -0.59685374853904
H          -0.74942190101245   -2.10722377963538   -0.65756620610074
H          -1.78980508788306    0.57132868108740   -1.44605661242572
O           0.84683225096700   -2.02920567871460   -0.64506069911495
H           1.20717808375839   -2.91215444563579   -0.74111645767852
O          -0.64253228582892    1.63286763304287   -1.75961059496159
H          -0.72920154817550    1.91434658933829   -2.67176134186524
O           2.05246251629962    1.51603917194829    1.04693993944960
H           2.58115452631006    2.30619287321066    1.16345444968886
O           1.65002382387761    0.48316914682629   -1.44354374019805
H           1.44104982879560   -0.45385890799697   -1.30002096192205
H           0.26039769008018    1.19153887286824   -1.67998883118628
H           1.93096967666167    0.82511422126968   -0.57039306727456
O          -0.50061165878982    2.18674210324274    0.97286708769971
H          -0.94952243331691    1.33264184202926    1.10526359507990
H           1.10312250330661    1.80703508359829    1.10113337033137
H          -0.63858801167154    2.38195505647295    0.03687134397193
N           1.03296289800019   -1.16256933121456    1.77488763252082
H           1.22047368233943   -1.69970574552095    2.61068737413295
H           0.98566189811802   -1.74676296663005    0.33605609898729
H           0.06697327311316   -0.84184037715933    1.80353816742069
H           1.62316665969874   -0.33603559466482    1.78073970908477
