    26
        -50.45406778  Gyration_radius:  2.52778423688 Dipole_moment: 5.872
 S          -1.83677386798323    1.33540940848302    0.34935824832462
O          -1.48903617240888    2.62330388856475   -0.18852223070079
O          -2.51891308854945    0.46606565408473   -0.61901692611648
O          -0.75531562472300    0.62184349838150    0.99591922717911
O          -2.91622871928114    1.61839459432934    1.49388613003899
H          -3.28958971731485    2.44629889503338    1.20883194084940
H          -0.44762208241532   -0.85150254068179    1.45775026162769
O          -0.31247993887131   -1.82975655816239    1.59429876435770
H          -0.57285565321741   -2.00795348436691    2.49864088017889
O           1.07367974110859   -0.76887275247037   -1.87049377732381
H           1.68815403091660   -0.96440189408088   -2.57853510098274
O           2.59593397907059    1.25067977663894    1.05946150475613
H           3.41497386010972    1.69649227206143    0.83871350857655
O           2.18963847071634   -1.29323579457975    0.39105658755606
H           2.41254925539919   -0.39138029398895    0.72371775739986
H           1.44699827683295   -1.58470182652200    0.93944075228408
H           1.56477860123663   -0.96066979382708   -1.00645217156502
O           1.00839820925369    1.97715988726142   -0.96398374035858
H           1.92568737051959    1.59272829295506    0.42068491297743
H           0.86813794660661    1.11935839311549   -1.38608593080089
H           0.13158142235270    2.29586797549881   -0.68474164874964
N          -1.24324525770372   -1.71326630833534   -0.94702427217079
H          -1.83702885147486   -0.80254256381131   -0.82439134132060
H          -0.97037114773906   -2.02564339820949    0.00317388194698
H          -1.75798741573787   -2.42539588529596   -1.45227408748109
H          -0.37306362669820   -1.42427944207665   -1.45341313048366
