    26
        -50.43947769  Gyration_radius:  2.63586911732 Dipole_moment: 7.882
 S           0.83908853424987    0.71082690524118   -2.54466563811068
O           0.64435054939599   -0.43401168122088   -1.69764815808707
O           1.15547950729167    0.49083475401481   -3.90727567867290
O          -0.42502889633157    1.61684800083836   -2.43093980354169
O           1.94652598403800    1.60410221011553   -1.90765243228554
H           1.81823958264514    1.54141672018455   -0.93254360487520
H          -1.10917494563622    1.21623375713115   -1.81972275886329
O          -0.50997486522466   -1.58618526885442    2.05045872652192
H          -0.92935562373465   -2.22315548668850    2.62934747697913
O          -2.27542897549571    0.81177921167687   -0.80546730391703
H          -2.91043239750643    1.52954254155070   -0.84688033328472
O           1.68358013736389    1.48212973529781    0.71753793408155
H           2.37511877683667    2.05477319825756    1.05560393269727
O           2.08498871166139   -0.86883536361985    1.85616167361748
H           1.17339471893105   -1.22876857310010    1.86419616799154
H           1.89598631822907    0.56379297857910    1.02784138847955
H           2.38319969733884   -0.86776071429781    2.76745405261790
O          -0.98371787533102    1.06492689334178    1.46206025772277
H          -1.81948177535614    0.89498090556650    0.07810466487122
H          -0.87073736321217    0.15497927680967    1.78985974030131
H          -0.10039277527372    1.35113740876008    1.18460253083054
N          -1.27235670838735   -2.03544235340322   -0.39449483026766
H          -1.38088358455131   -2.95808448864232   -0.79619785491909
H          -0.80609745759099   -1.81557823388608    1.10143438733659
H          -0.50474724391966   -1.57458053918265   -0.88688995028999
H          -2.10214203043101   -1.49590182447073   -0.61428458693612
