    26
        -50.43947775  Gyration_radius:  2.63392110366 Dipole_moment: 7.860
 S           1.33362398581402   -0.31512617828621   -2.40274336212615
O           1.53601075082330    0.06745007070766   -1.03200840719529
O           2.47216703679679   -0.46993703346777   -3.23045737569136
O           0.48163796781650   -1.62095296430837   -2.41952957577772
O           0.36937525156391    0.71959715678377   -3.05804883392302
H          -0.27224217556772    0.97486757671673   -2.35480871071643
H           0.27125623195717   -1.93238258978421   -1.49159549279814
O          -0.26540955502216   -2.53166937149195   -0.11189420371235
H          -0.81901614017357   -3.27652336049715   -0.35450622563854
O          -1.37933952575453    1.47062091680775   -1.22757388443868
H          -1.94561608802173    2.10037467392474   -1.67834115725297
O          -0.33476780032666    0.62390351388762    2.54477350785915
H          -0.32737400780007    0.58966425221731    3.50161334884625
O          -1.87325424711424   -0.58934354446891    0.60614001351739
H          -1.79376031152784    0.04876199139294   -0.11873600671041
H          -0.88553094586662   -1.81384146449204    0.19765959766727
H          -1.43628244577757   -0.17125034333804    1.36945312102563
O          -0.43465314416249    2.75027517636463    0.88325287407868
H          -0.91046965528393    1.97081505600303   -0.51006384404033
H          -1.03322156868880    3.35070058288705    1.33116546333769
H          -0.27911674640232    2.00451452155901    1.49963646784613
N           1.59467552749257   -0.85908839616966    1.62789351071724
H           1.68243616293097   -0.44065340184938    0.69978527692301
H           1.27325291671378   -1.80789016283906    1.47163614530407
H           2.52224533249057   -0.90283293150936    2.03060427107086
H           0.45337319309127    0.05994624324927    2.22669347182921
