    26
        -50.45123060  Gyration_radius:  2.47055874122 Dipole_moment: 4.661
 S          -2.33817223863526   -0.30600324651386    0.43065491940867
O          -1.20448193815659   -1.17683329347493    0.21246305501043
O          -3.61694700259786   -0.88245492322398    0.24031913992654
O          -2.23450128646604    0.30733924358779    1.83828630915434
O          -2.14695946679414    0.95460483194978   -0.46530401391118
H          -1.59014504428740    0.75990496657880   -1.27335518130234
H          -1.38944488131905    0.85125292655807    1.82684824742440
O           2.53640040203773   -0.63993578613581   -0.35355074364480
H           3.47715482325847   -0.75217465309850   -0.21555030266796
O          -0.65815746268937    0.51365542239375   -2.53250539305179
H          -1.17196667534698    0.40434016974304   -3.33408190130654
O          -0.11433576266471    1.75105365643080    1.69962847561686
H          -0.40620658388253    2.65994081141211    1.79456068947323
O           0.46670976062992   -1.69619320232759   -1.83569938087079
H           1.31605453408973   -1.43409992528207   -1.43946745548037
H          -0.14553273692296   -1.78279914575589   -1.08430428289544
H          -0.19514331386337   -0.36750297837691   -2.36042447464326
O           1.09326995606252    1.66917176016857   -0.62703270865333
H           0.50607165127208    1.50754911558596   -1.37541293711519
H           0.33401280060239    1.70528692793816    0.80787206021348
H           1.69995129421144    0.90554057820462   -0.59413513789512
N           1.13950978647711   -1.02191074353892    1.85284516800986
H           1.02266658088934   -0.14189180030746    2.34190918542259
H           2.08173867507704   -0.82877241254694    0.52326937139697
H           1.28257587680331   -1.74819719109707    2.54273876276149
H           0.25587827221535   -1.21087112887120    1.37942852961873
