    26
        -50.44109293  Gyration_radius:  2.58396915849 Dipole_moment: 5.866
 S          -1.67473589746267   -0.15993630857188    1.85236045058273
O          -2.35381861697900   -0.37183315236316    0.60899724906329
O          -2.10533206181591   -0.89168095935020    2.98672571316706
O          -0.13803882693851   -0.41878497996201    1.60399151272448
O          -1.64383419304610    1.34856720308549    2.18449132665834
H          -1.36551521201788    1.85712274218094    1.36861276668273
H          -0.06914013855821   -1.36701287335955    1.26411497498697
O           0.16655249798547   -2.78597208620743    0.71321757125230
H           0.35642480127728   -3.42747230984513    1.40048196839166
O           1.33369242604459   -0.06298909007373   -2.02841513286602
H           1.58624945082490    0.11431931287930   -2.93478121681747
O          -0.69628936521142    2.73180612663408    0.19776829274316
H          -0.56812682954470    3.60897781842969    0.56424045947044
O           1.53512715644261    1.35588902008641    0.28906776020942
H           1.59480865184617    0.91276542371785   -0.57791210230062
H           0.20337722049151    2.30132270158024    0.17774648035082
H           1.12365142720375    0.70839130805127    0.88218508985917
O           2.37842175434532   -2.05844277702549   -0.54717067354497
H           1.99983211832976   -1.41415679425208   -1.18065861070804
H           2.94064219273944   -1.54829732480622    0.03973257433986
H           0.99589634665293   -2.65722315749500    0.18837841985863
N          -1.21045937227936    0.46103640608569   -1.82579089061301
H          -1.81777832972256    0.23775430518115   -2.60477170934682
H           0.32305699604525    0.06672233108306   -1.97428894112295
H          -1.29065670678179    1.45682952755368   -1.64791635074350
H          -1.60400748987255    0.00229758677188   -1.00040701227783
