    26
        -50.45004756  Gyration_radius:  2.53821198575 Dipole_moment: 6.004
 S          -1.79633623217751   -1.04044109739349    1.59935974995147
O          -0.54460883654270   -0.31896000590445    1.67316164723945
O          -2.41478417204188   -1.40281806341455    2.81694088517280
O          -2.78500754557274   -0.21045471807366    0.73908599691704
O          -1.56148741903674   -2.31984349756752    0.75251606737807
H          -0.88425504634910   -2.15411511887589    0.03707809026679
H          -2.32326669166215    0.45186122251081    0.15015203754877
O           0.29194200022398   -2.02302760774458   -1.03636739327769
H           0.53665084354203   -2.89707590076338   -1.34421257079532
O          -1.74988962120236    1.53626321988750   -0.86823850975091
H          -2.44613938697345    1.77714457957098   -1.48141244665481
O           2.13548922722232    1.62591661898441   -0.63255242428145
H           2.56240437666770    2.43745819707928   -0.90921944170187
O           0.20780068917881    0.48072446352950   -2.18374524186327
H           0.20134044608681   -0.45649405119363   -1.93095689783605
H          -1.00991455090167    1.13005236596039   -1.41945605453592
H           0.98719441016204    0.86712828012345   -1.73503074519384
O           0.17533528965459    2.20584610741080    1.03922099271658
H          -0.01886509641784    1.34318311026548    1.44745949974889
H           1.45961483446653    1.88646349782106    0.04876428149649
H          -0.57012392907972    2.35710514691929    0.44367434337518
N           2.02107488429953   -1.05424912620832    0.61039379709140
H           2.75311628073728   -1.55057448545629    1.10029574489587
H           1.04336631506625   -1.69677804851453   -0.41117410068700
H           1.31481718201489   -0.76614984313545    1.28500536210551
H           2.41453174863522   -0.20816524581608    0.20925732066635
