    26
        -50.44974532  Gyration_radius:  2.5534637566 Dipole_moment: 5.640
 S          -2.26135315739245   -1.34515997732562   -0.45914634996892
O          -1.66382361752316   -0.57402387986231    0.61028842774335
O          -3.50173670792108   -1.96850522049031   -0.19722374654554
O          -2.40118989739040   -0.42738932699045   -1.70178554506270
O          -1.23522859389596   -2.42033220669712   -0.90450011868815
H          -0.29231873774072   -2.11179316264515   -0.77464556139081
H          -1.68075276658577    0.26222945578803   -1.73686598900123
O           1.23800389067915   -1.79220765589956   -0.46425432445813
H           1.72914683376565   -2.61526666055584   -0.47996178233031
O          -0.66828654480044    1.50808630790611   -1.78557102439641
H          -1.06628273030594    2.18888814936927   -2.33078476534807
O           1.72829254230893    1.73799639751262    1.28214793121698
H           2.26952923522214    2.52246080458349    1.37748585708602
O           1.94977145843137    0.77978202746760   -1.18240643014912
H           1.83180447871905   -0.17517494785910   -1.05530279096788
H           1.12282587307294    1.08132791739300   -1.58862019187731
H           1.90041398882984    1.39091416519509    0.36858114826626
O          -0.92933176130840    2.01737720123739    0.71512834144296
H          -1.31400630026432    1.13731467709552    0.87739149304914
H          -0.01589140657259    1.97602273797893    1.06270233861351
H          -0.77376239518805    1.80861880077267   -0.82281921857826
N           0.83071735947103   -0.99808259025476    1.96063587689648
H           0.97811365683853   -1.52509387198770    2.81066218595917
H           1.14823248977172   -1.51199429624371    0.52082116371993
H          -0.16973777747176   -0.86747364243933    1.82631524090157
H           1.24685059725085   -0.07852119305087    2.07172781386996
