    26
        -50.44974533  Gyration_radius:  2.55344467392 Dipole_moment: 5.643
 S          -1.62016500927831    2.05169855736991   -0.54701095881075
O          -0.25659039178928    1.65130926052030   -0.82225228184203
O          -2.08231279881765    3.24344300114812   -1.14859771804731
O          -2.55346129355014    0.88074665855600   -0.95324519482036
O          -1.79738725959264    2.15207477746436    0.99067735867921
H          -1.21215781277687    1.50537871706508    1.47565948424998
H          -2.10262222950892   -0.00656871110085   -0.85156649018493
O          -1.43728636330157   -1.45489516776831   -0.88108153778301
H          -1.97705489664042   -2.02592619628591   -1.43012647482788
O          -0.18675237806471    0.62462279870507    2.34291269163333
H          -0.11071494598146    1.02934351867292    3.20867772806273
O           2.37734021767570   -1.39735086870237    0.21138851201576
H           3.09305243985168   -1.84320932256534    0.66570401338542
O           0.06557656288441   -1.97461936996560    1.37924380407340
H          -0.10601082183954   -1.16932307603341    1.89094790122460
H          -0.56420712536502   -1.94075716701922    0.64151402540347
H           1.53950875218830   -1.69962440711778    0.64881513532120
O           1.81367825980878    1.19980410803436    0.84355286676290
H           0.65916833156525    0.86147999894841    1.83632808627495
H           2.14925990587960    0.32890009775324    0.55061910089480
H           1.22222925335734    1.50760782887578    0.13338778933869
N           0.70132458538910   -0.71573902777685   -2.12909328654408
H          -0.58858907694304   -1.23343038952716   -1.41728306458287
H           1.50756934644434   -1.02206557815946   -1.59311471668829
H           0.90569040203272   -0.82598839296466   -3.11300826507121
H           0.56091436637995    0.27308836187299   -1.93304852812523
