    26
        -50.44788593  Gyration_radius:  2.44276127599 Dipole_moment: 2.482
 S          -0.88443060541225    1.55728761678625   -0.35581719535081
O           0.39219303476391    1.54808825119738   -1.01109215746647
O          -1.99848580081873    1.97323784076414   -1.13984649132705
O          -1.14300099050034    0.13524913438047    0.22459975521625
O          -0.81728019360943    2.40391511958023    0.93064895084946
H          -0.06321034002544    2.03640415152065    1.48953445869470
H          -0.63026901408480   -0.53269627989141   -0.37346771503874
O           0.03835054702406   -1.34802013734679   -1.41085380224429
H          -0.17390742851939   -2.27644063549750   -1.28894610551637
O           0.94722837366558   -2.45432659429416    1.03259896538266
H           1.57917625002526   -2.97491110176128    1.53030194437018
O           1.13331823927455    1.34693227366932    2.24441082387321
H           1.77466841782688    2.01370081801335    2.49654465898866
O          -0.49068302276793   -0.90960432465568    2.72234373179564
H          -1.07512157437179   -0.58897979188891    2.02331339931131
H           0.38459258223391   -1.99894115106161    1.69700357451858
H           0.09634444647718   -0.16629756008285    2.91376107012484
O           2.10710291140104   -0.04990341439802    0.33279346175009
H           1.72309981442915   -0.94888917511926    0.36421397971336
H           1.63815648082481    0.42361961241283   -0.37708653123209
H           1.58198415040104    0.77915647124857    1.52848305163005
N          -1.31186310030380    0.03084928349429   -3.20885433044187
H          -2.06418337151499   -0.25210291588052   -3.82597907458642
H          -1.68289539414597    0.72556863866058   -2.56185508618841
H          -0.44405327776788   -0.98174068458761   -2.20666927298338
H          -0.61683115450287    0.50884456471196   -3.77008406382904
