    26
        -50.45123063  Gyration_radius:  2.47062803215 Dipole_moment: 4.664
 S          -1.60603687748809   -0.19526123632741   -1.76917202401060
O          -0.21275615090934   -0.54128186432526   -1.59513149905391
O          -2.06711336693719   -0.10372702166782   -3.10440999507374
O          -2.47159563844846   -1.18860670785955   -0.97364918777901
O          -1.86724450356165    1.12795849867438   -0.98880645047468
H          -1.03949982106819    1.68318954741964   -0.90219635729708
H          -2.20887702346790   -1.05583336503460   -0.01283253852385
O          -1.81488911543093   -0.72355369190471    1.46617494396667
H          -2.59960435819398   -0.36917311860411    1.88925599725734
O           0.26064486247416    2.56417991296492   -0.68318627213933
H           0.29539454698972    3.29907522664739   -1.29734120188220
O           2.27880846453950   -0.31573639987247    1.29309601172084
H           2.94044224437917   -0.61679814190149    1.91612190511084
O           2.08022415595006    0.81933543660732   -1.21063830348802
H           1.03906813918444    1.96029036749079   -0.90665648191896
H           2.35026796115414    0.46623594386939   -0.34492339808662
H           1.40541500283055    0.19847096989034   -1.53642684027660
O           0.00789447971056    1.14012835930110    1.75406221584797
H           0.87160008440525    0.69183758551016    1.68076268235557
H           0.00133850083927    1.81411346133292    1.06361359182418
H          -1.11781929534988   -0.01344683392852    1.55660835738248
N           0.65172699466539   -2.25061940710449    0.53568567009658
H           0.34559424695056   -1.79258288436271   -0.32287067750962
H          -0.15411584199526   -2.28154808164157    1.14963914646588
H           0.90751753634362   -3.20200774175003    0.30469810844141
H           1.72361479242640   -1.11463883344366    1.03852257703017
