    26
        -50.45004723  Gyration_radius:  2.53829433068 Dipole_moment: 6.005
 S          -2.25108150093145   -1.33911041948931    0.08624608756298
O          -1.56861127093996   -0.28772999437574    0.80839675596141
O          -3.52559796966677   -1.73182184391859    0.55289797584350
O          -2.34706796941443   -0.92032410118469   -1.40445349004056
O          -1.32031524966063   -2.58092542751159    0.05630945786339
H          -0.36174263154574   -2.30434580583461    0.00592738987175
H          -1.68527964016925   -0.21300041436845   -1.65033996969010
O           1.19573945030038   -1.95335171059779    0.07695649807049
H           1.68874880209152   -2.74836991054592    0.28557739219619
O          -0.68001625279797    0.88656638551851   -2.21867519115446
H          -0.70891659777338    0.85916063822949   -3.17638432262198
O           1.68601979507194    2.09060298888935    0.62778650233830
H           2.07925702197697    2.95739551173674    0.52080824651233
O           1.70856454881507    0.29880246980233   -1.42699413827645
H           1.62339328889558   -0.57209592777388   -1.00680523625388
H           0.26396833007460    0.65245685183135   -1.95324897560302
H           1.84129328555402    0.93189952508580   -0.69230441672827
O          -0.91407634576728    2.26151084513773    0.19920057507411
H          -1.24714521014572    1.42536032153447    0.57110502825185
H           0.70437225558219    2.21779954919033    0.53230758816729
H          -0.97699649575469    2.13471994735045   -0.75645947715635
N           0.99398524560708   -0.37531239264874    2.10423845402022
H           1.18675446571696   -1.36721393556747    0.92439085839348
H          -0.00571765380467   -0.23104524681580    1.97505670573309
H           1.16631304527478   -0.59410892297135    3.07615965348955
H           1.45415526344633    0.50248097927077    1.88230005817309
