    26
        -50.45499941  Gyration_radius:  2.50014022656 Dipole_moment: 4.586
 S          -0.59903663745772    0.47605040582085   -0.79548120724907
O          -0.78291481838390    1.39099149720615   -2.02105812889951
O          -0.06450264790632   -0.80969478296775   -1.24508877718178
O           0.33283966333720    1.11916947118732    0.13246983977040
O          -1.90718391870887    0.30936083284331   -0.17255616342179
O          -2.21655856732926    0.41747113283895    2.36624715825919
H          -2.08101886137615    0.53353533903290    1.38261676107722
H          -3.16248115655844    0.47311912961580    2.51365684005915
O          -1.61644043199073   -2.39446174349292    0.02966094728613
H          -0.92652240384032   -1.93130275104949   -0.52389184284386
H          -2.39994044372504   -1.85089092663305   -0.11656598605983
O           1.23090600766283   -0.49308852302229    1.90568280982904
H           0.92434206285547    0.11445690050213    1.16913042028376
H           1.45522455738837    0.08355155566124    2.63983539238653
O           1.23681173681305    0.43174176895350   -3.24550289299278
H           1.01054132338686   -0.37580586784703   -2.75971601104278
H          -0.02591391710177    1.13084560826858   -2.63490034358147
H           1.94914222790164    0.86331238489365   -2.71177016212483
O          -0.90899799485980   -1.74882926887802    2.34090114845928
H          -1.50291158408933   -0.91963158444768    2.48417272464393
H          -1.19638068915502   -2.12866263640959    1.38754625565379
H           0.03766877052470   -1.33752824371165    2.20187787410398
N           2.75009450604664    1.56270201393202   -1.33260437579261
H           1.93315328398416    1.50388901414975   -0.72282431306638
H           3.02985361992426    2.53413733797376   -1.38032363612584
H           3.50022630266418    1.04556192557764   -0.89151431143228
