    26
        -50.45638462  Gyration_radius:  2.495605558 Dipole_moment: 4.643
 S          -1.73557613367385    0.37083434988455    1.27948443933251
O          -0.62735134309746   -0.60224014143225    1.31837574542124
O          -1.26174312425468    1.67608260931385    0.91103210569021
O          -2.84783611831274   -0.13775880505183    0.50909818140339
O          -2.25615122820926    0.45955759843325    2.77576772672421
H          -2.94890338351244   -0.19030383170617    2.74414633361187
H          -2.66498932720209    0.15535682968875   -1.10217007215878
O           0.45884956003437   -1.79354014379353   -0.64047573154531
H          -0.06182395741895   -1.41343277185030    0.13971123887713
O          -2.51100219471311    0.21889805777605   -2.07207400077986
H          -3.16489907829482   -0.34964202242042   -2.48195515067598
O           0.82998781504555    1.83430106382412   -0.73586521542167
H          -0.02407361125237    1.98368697683542   -0.28566504229134
O           0.08915788833884   -0.07237248657197   -2.35736254772844
H          -0.89028231155242    0.06077464258539   -2.39264271355316
H           0.43561878184008    0.72514208584677   -1.86774634966156
H           0.27820196615984   -1.07337088273919   -1.47750258496831
O           1.57469594001186    0.78712107923872    1.71871076878437
H           1.35694585412980    1.54689677697560    2.26176306777303
H           0.73988677033759    0.26948358757363    1.64965248536323
H           1.40078733741351    1.51633340127707   -0.01817763911470
N           2.86625588720892   -1.19028017161581    0.03598546155910
H           3.36859908444789   -0.73665911072887   -0.71663455562104
H           3.45715771725597   -1.91008851666308    0.43040750475805
H           2.67814070541025   -0.49693198820384    0.75694779654937
H           1.46034652386152   -1.63784819649147   -0.38281125231359
