    26
        -50.45843796  Gyration_radius:  2.44916539206 Dipole_moment: 5.780
 S          -1.85084780991308   -1.02136308299382   -0.56373670829745
O          -0.49019087381358   -1.23931260555569   -0.06500782400383
O          -2.13585065537289    0.39646075284274   -0.71078387545565
O          -2.19624026790143   -1.82759805867489   -1.69453590083613
O          -2.76343038978345   -1.52090453230106    0.65755603663760
H          -3.52422820992609   -1.88645450013406    0.21756540127330
H          -0.84707806785890   -0.77136396540095   -3.06268650598152
O           1.98545191606423   -0.75892466670231   -0.42694560194569
H           1.04660325759882   -1.10472637383836   -0.35758946519311
O          -0.61962884578476    0.14519966415499   -2.88095705806960
H          -1.28514627802687    0.42465028851036   -2.22999057345599
O          -0.24541304540722    1.97506294780161    0.31325147407723
H          -1.02820037823421    1.56378460266072   -0.10472313675062
O           1.42769514198181    1.32321342404506   -1.62365976902698
H           1.84627373300345    0.15750516856506   -1.01435831451492
H           0.78557713250877    0.99238859640239   -2.28803778182226
H           0.86578438144350    1.73463630413801   -0.91560393837661
O          -0.49841945191838   -0.03203380264481    2.25724428572822
H          -1.35920172339952   -0.13684270575519    2.66556064290753
H          -0.54301417442469   -0.55414932386919    1.42380004441552
H          -0.17378799782440    1.51174980095625    1.16025126487252
N           2.35803817619489    0.15640788942529    1.93037936589976
H           2.21307253607412   -0.41723226934450    0.55028000472744
H           2.60923616244364    1.13667110809879    1.90119190409505
H           1.41967554350791    0.07941707778679    2.31999586120648
H           3.00327016871946   -0.32624175817845    2.54154017783920
