    26
        -50.46788074  Gyration_radius:  2.39857028487 Dipole_moment: 5.649
 S          -1.04120284846148   -1.10616272741523   -0.97598957675258
O          -1.62504106948809   -0.70353610458375    0.32527364283296
O          -1.24794983220591   -2.50216582939946   -1.25145961178177
O          -1.76763556823493   -0.25849055158467   -2.06541225403186
O           0.37024325900744   -0.73840678828560   -1.00148974612599
H           1.61304834250583   -2.81420351751710   -0.66739713761807
H          -1.49408876067941    0.67884490030905   -1.92113051357255
O           0.99952038022634   -3.20796049426961   -0.04013937479400
H           0.12658761765234   -3.13893150054321   -0.49289011866585
O          -0.89860868646951    2.23583347758878   -1.69834758245764
H          -0.95302317860237    2.69790885518213   -2.53649136362237
O           1.29389471523321    1.25782104077563    1.71355712455863
H           1.53481434114394    1.78867462737765    2.47377785423842
O           1.55656621288488    1.58216989624913   -1.11240979357211
H           0.07530917419490    2.08029932960051   -1.52215581429349
H           1.73885440978112    1.68888530223767   -0.16942620862234
H           1.25445730119993    0.64956081667119   -1.18352778278044
O          -1.17192535709215    1.79765191177268    1.04301669184683
H          -1.22347427115808    2.26985619158897    0.20219262120637
H          -1.48331651245752    0.89027961774654    0.83034158016748
H           0.35728084591252    1.52068359385770    1.47605068955801
N           0.41892256103295   -1.33914469098098    1.75008612260653
H           0.98142969971029   -0.46400415670411    1.73990896016833
H           0.28597316350941   -1.68714042484383    2.69403282163484
H          -0.51646132763917   -1.09000740292669    1.28107692048815
H           0.81582536854096   -2.08831535190595    1.10895181949260
