    26
        -50.46788061  Gyration_radius:  2.39855021474 Dipole_moment: 5.645
 S          -1.08854671353276   -0.98439408571911   -1.05253578581374
O          -1.68630092907745   -0.58386083424475    0.24304934059971
O          -1.39247044898450   -2.34921887257221   -1.38816058956466
O          -1.70708760315134   -0.04364034297893   -2.13208382947889
O           0.34714606148818   -0.72824891530468   -1.01676773201294
H           1.41293448410079   -2.90478310799293   -0.72146951146648
H          -1.36431224452529    0.86269428304483   -1.94380062463947
O           0.74887153756667   -3.27202390742138   -0.13069017754810
H          -0.09914115107172   -3.11904322668098   -0.60930624250180
O          -0.65569989620820    2.35761445151965   -1.64233514162637
H          -0.64172342012743    2.85113969415598   -2.46405267576757
O           1.32149567244189    1.08996310619379    1.80560313815898
H           1.57316198255879    1.57235193033519    2.59413970322101
O           1.71730336243812    1.49193421324455   -0.99467768642611
H           0.29561918510499    2.11937273946418   -1.43772702271446
H           1.87033154157840    1.55015139874017   -0.04230509580200
H           1.34600497379484    0.58966412781002   -1.11281546276165
O          -1.06717431043190    1.84707202791768    1.06947559877344
H          -1.44016666209613    0.97516980251569    0.81223289577818
H           0.41798986806132    1.43451202648126    1.54512762266875
H          -1.04956671022988    2.35071062164823    0.24567747116766
N           0.24830004775476   -1.42984237930381    1.71043171319509
H           0.05387825823594   -1.80071204762407    2.63479573742799
H           0.60968883935807   -2.18386706041561    1.05406122808905
H          -0.64708934673045   -1.09100484726729    1.21999537783159
H           0.87655361170211   -0.60171080556153    1.75413776121265
