    26
        -50.47071346  Gyration_radius:  2.4157532209 Dipole_moment: 4.143
 S          -0.17016414909714    0.57159777636588   -1.93709434919869
O          -1.01530354674328    1.50717754296679   -1.21444859871720
O           1.22302638485021    0.62200444620141   -1.56453146127787
O          -0.70375958667690   -0.79095207457756   -1.87406220352387
O          -0.24067713720938    1.00463495028305   -3.45840062129059
H          -1.16945399320946    1.16829120844669   -3.58078115684588
H           0.55218055124719   -1.74487377909440   -1.39748256678017
O          -1.28587489894725   -0.57740174727342    2.09808527200876
H          -1.87355952490006   -0.90932453410239    2.77762283494321
O           2.10527812158806    1.22958256744523    0.87415126701339
H           1.96838806128365    1.14361500264175   -0.09106074344168
O           1.41539916187426   -2.05665958579816   -1.03904930261157
H           2.04085535278416   -1.42570498479534   -1.41296805506801
O          -0.36270328965324    2.04490887012750    1.34933654865554
H          -0.76674647532040    1.27901556624666    1.77849936538797
H           1.31615257566617    1.73956061262611    1.17557587407373
H          -0.62243147944045    1.99368413155328    0.40929230300991
O          -2.60105143367136   -0.35371291457345   -0.13115050768728
H          -2.46662142426103    0.58348365978509   -0.33735685698619
H          -2.02418503704160   -0.78455463113047   -0.79434710416566
H          -1.82709218738077   -0.54491996689530    1.25506810823725
N           1.30264497347867   -1.16247992893339    1.44592666407090
H           1.33203769001907   -1.63483173878790    0.49232629733291
H           1.83501811384628   -1.68845553271902    2.12971174340632
H           1.72142259486109   -0.16582225037983    1.29521071320217
H           0.31722058205357   -1.04786266563563    1.75192655625208
