    26
        -50.44810403  Gyration_radius:  2.52503351934 Dipole_moment: 6.946
 S          -1.92251326008485   -1.50023311035358    0.10838707927811
O          -1.71689839694391   -0.76248100943772    1.33398823050358
O          -3.16074181129195   -1.31421035648884   -0.55458716011763
O          -0.75403501781207   -1.09438086549377   -0.86789371722562
O          -1.60766831216005   -2.97355282734898    0.34461689003054
H          -0.86111937744012   -2.97382891326915    1.04990592315079
H          -0.92148401909320   -0.16661805870867   -1.22435510085406
O          -1.00083584502149    1.29227914789834   -1.76800898611513
H          -1.38977181419107    1.29102033075623   -2.64431649867710
O           0.16372259209702   -2.55376928263111    2.09079217361213
H          -0.36631658858510   -1.79988705395834    2.38505907805778
O           1.61682573000549    1.45493244880789    1.06384656596410
H           1.95889036752025    1.76352272664799    1.90375825834468
O          -0.99311532493920    1.79422767561283    1.01794847635899
H          -1.34457270867607    0.91800712507525    1.26656809027611
H           0.63690050108724    1.62323526440156    1.08587505957144
H          -1.23248336647238    1.91365440118577    0.09136512043128
O           1.72051366041981   -1.20422473094940    0.41359881540573
H           1.00820870763883   -1.23062334862314   -0.23946746975942
H           1.78233038810913   -0.27184908905969    0.69596573182256
H           0.90647377190471   -2.16674712313982    1.56456956708490
N           1.60158741290636    1.61000821386043   -1.86036087300544
H           2.06939608389585    0.78753802579919   -2.22093385062413
H          -0.00673555456560    1.47685321193390   -1.86717348996839
H           1.80659815137715    1.66343076410792   -0.86404718895863
H           2.00684404029220    2.42369641335113   -2.30510073459300
