    26
        -50.44023239  Gyration_radius:  2.5431745373 Dipole_moment: 6.124
 S          -1.80174653399162   -0.55825823952486    1.66446159062826
O          -0.64711857637915    0.29683040727269    1.62336645451482
O          -2.78774208027369   -0.27157887764548    2.64130177024500
O          -2.42182518512592   -0.56053842631097    0.22405816103605
O          -1.35537663553450   -2.03233923140134    1.79662556041046
H          -0.82461713834832   -2.23723889637147    0.97124681595781
H          -2.16606964882910    0.30083622080777   -0.19484183368255
O          -0.10283398027304   -2.51047628198010   -0.40830395730151
H          -0.65910252069051   -3.13391144423519   -0.87968747388952
O          -1.73215594536098    1.72387354174239   -0.83509086204486
H          -2.39387751693656    2.33335180477476   -0.50320306544725
O           2.30189386896915    0.74882349399125   -0.94694530504171
H           3.19926557944006    0.64856027512373   -1.26561615404491
O           0.01128947033670   -0.37212639391648   -1.94681758175456
H          -0.06790588248453   -1.69631531603347   -0.98089535897750
H          -0.68579316136625    0.26814878442661   -1.77085154136071
H           0.84971974509401    0.05665793309982   -1.69060506689307
O           0.64215925658638    2.84742924181470   -0.46684782630812
H          -0.85745339270531    2.09672698088728   -0.55209885552442
H           1.29056810148000    2.11924321648386   -0.50917441688911
H           0.84185642719246    3.43095178831618   -1.20158476114501
N           1.91170768211272   -0.77672722974110    1.13335780162953
H           1.68393651391139   -1.72155726434899    0.84611914089194
H           2.21836536164992    0.16789479739641   -0.11901443638247
H           1.03585153316143   -0.33866154485484    1.42873026739444
H           2.51700467836842   -0.82959933977534    1.94231095397897
