    26
        -50.46824828  Gyration_radius:  2.38821610579 Dipole_moment: 4.282
 S          -0.89927332504266    0.53748403189512   -0.75884450763389
O          -0.20412847672692   -0.87401654826639   -0.70436032201882
O          -2.31473754335854    0.23146994061877   -0.91572329329106
O          -0.64728167874760    1.14167605576930    0.55803211679638
O          -0.31174550818033    1.28422437430417   -1.84084325422290
O           0.85485399167837   -0.46360478366436    2.11810158111958
H           1.69031805768493   -0.55878941571789    1.65043282160303
H           0.35831662687157    0.21980260711005    1.62610170235469
O          -0.87903225577366   -2.37883297053080    1.55608985880194
H          -0.68997580493310   -2.39263124139923    0.60861594121985
H          -0.14917512271343   -1.83059339658103    1.93687682397723
O           1.81336630151982    0.23718013484924   -3.08200300469384
H           1.01916451773230    0.68386722347026   -2.72295936761858
H           1.51907495464595   -0.24788944821870   -3.85352991585376
O           1.66337915714531    2.30640628612016   -0.09616170187509
H           0.77915324502095    2.06771912001292    0.24025036501807
H           1.51042245272411    2.60744341798627   -0.99638157877687
O           2.26819923721000   -0.25155432506425   -0.47290840563424
H           0.79034057310589   -0.69789720782649   -0.60392576138263
H           2.45705549309013   -0.25740696294975   -1.42837057049498
H           2.22237377307486    0.71121048435023   -0.24919141650934
N          -2.60563046360224   -0.42178250187306    1.51816865873583
H          -3.52188968075734   -0.50385342235173    1.94663506432546
H          -2.64573772712858   -0.20070982626941    0.44937917741100
H          -2.06904102039792    0.36469337529378    1.89308994508878
H          -2.00836976418385   -1.31361501103066    1.62342904355115
