    26
        -50.44131411  Gyration_radius:  2.68820073662 Dipole_moment: 5.672
 S          -2.31483835666623    0.75337911790127    1.27001011088087
O          -2.00673900740697    2.04071796144789    0.70418301805245
O          -3.67663852029570    0.39106550639189    1.38583317832599
O          -1.54196239095772   -0.31712690988829    0.42222555309559
O          -1.63176052693845    0.61352457215864    2.65168743754614
H          -0.65444446194354    0.77934893303492    2.54554715954198
H          -1.11396510976369    0.12708345329429   -0.38265839846298
O           2.21404087610506   -2.32544653551541   -0.83972702579000
H           2.60217715407679   -3.17511620062552   -0.62758816557575
O          -0.47168208506835    0.73359307725845   -1.64395679076101
H          -1.18192824546366    1.09891562106306   -2.17447449885203
O           0.90934391982755    1.04456982063930    2.27554112054710
H           1.30283075782870    1.55868828179727    2.98283292938330
O           0.79028666649613   -1.60470628166041    1.33723047191082
H          -0.11818133009919   -1.44562652246537    1.04991449702054
H           1.73319278435907   -2.04350194402232   -0.03195490447702
H           1.07135340840365   -0.78007867370508    1.75582019272668
O           0.54224325678336    2.53986591512125    0.20647586478926
H           0.88776859820984    1.64126617057714    1.46532129362586
H           0.59725714598300    2.00056367510671   -0.59414201797849
H          -0.42060909733570    2.60518317536344    0.37749224995098
N           0.51444953871588   -1.31806598574168   -2.90228696341837
H           1.03243364590750   -1.11817133362423   -3.74850872790259
H          -0.16112591205437   -2.04291248841915   -3.10957782162805
H           1.17451271308571   -1.69696651919584   -2.21844865876226
H          -0.07801541183555   -0.06004588632320   -2.15679110385214
