    26
        -50.46846769  Gyration_radius:  2.39943476767 Dipole_moment: 5.643
 S          -0.90490157049652    1.50566020551649    0.47658927062162
O           0.25766019810006    1.69198151422311   -0.42552875248931
O          -2.03606183644361    2.29045575130265    0.06206045220304
O          -1.21681227152517    0.08362770007937    0.56475179067659
O          -0.44345964363195    1.97574319033863    1.88908498982244
H           0.23144556516016    1.31927752860384    2.18648887557078
H          -3.16906907380189   -0.26567317825000   -0.80678405402513
O           1.06324354285301   -2.02226214557670   -1.00098705143039
H           1.22671622957785   -2.93086958270240   -1.25637858655570
O           1.49760620865572    0.26959844594326    2.53240064610609
H           2.09122014442146    0.72666357171515    3.13066872862064
O          -2.96467598952967    0.36571185120976   -1.50321197764977
H          -2.76228795661873    1.19492653123511   -1.01048382357462
O           2.41702061898944    0.26123234162082    0.08890344115352
H           2.17676833532690   -0.56227882573587   -0.35770021033596
H           1.72001791163019    0.90688133142280   -0.16021562239194
H           1.95577167155444    0.24175159522428    1.64565175955111
O           0.13160543818619   -1.97066133486495    1.42464154373960
H           0.71407541071164   -1.54501232537635    2.06460828927454
H          -0.50768292602559   -1.26187537570923    1.18417752106112
H           0.71206826657408   -2.05947931427497   -0.06103901625998
N          -0.43509131282709   -0.06398764457912   -2.16907621058894
H          -0.21420147702326    0.08946008876940   -3.14747284204981
H          -0.07038401086998    0.73519552465855   -1.54925120924760
H          -1.48342515227211   -0.04342205424583   -1.99464628424202
H           0.01283368932630   -0.93264537040616   -1.80725165762283
