    26
        -50.46208155  Gyration_radius:  2.405784324 Dipole_moment: 7.100
 S          -0.41704274755409   -0.07078765687632    0.86056815818727
O           0.64992521014113   -0.22041293943929   -0.27046337370473
O          -1.71146338601188   -0.47003288648847    0.35935188095894
O           0.08726703706363   -0.86876851562245    1.95426591989407
O          -0.39155135515404    1.37546168328018    1.18844312078806
O          -2.00081783145722   -1.50537424637419   -2.15367815742730
H          -1.54850393996429   -2.34117156849072   -2.00238650615682
H          -2.15120694111389   -1.15035200881970   -1.26143929368139
O           2.64056999801426   -0.69261524030082    1.61753909695172
H           1.69732214168674   -0.85952297060318    1.88660842535290
H           2.73119765290618   -1.15663491086291    0.78005742954112
O          -0.63503176688253   -2.98611400079614    0.07030780462358
H          -1.07021939040774   -2.15324395576536    0.29610188686618
H          -0.18867835819863   -3.25895122240182    0.87348880423087
O          -1.93808482873101    2.11140942411832   -0.88329672805784
H          -1.42864417442612    1.97241669278399   -0.06386425433568
H          -2.72439294909285    1.56879580177827   -0.78041783379495
O          -0.36486890444402    0.57897549350635   -2.42039318615046
H          -0.95792241151470   -0.18952850884124   -2.59009443519521
H          -0.95077440905219    1.27976711510390   -2.05640561257482
H           0.27788346112895    0.09495622906575   -1.18949908522568
N           2.10815978515051    1.81821305397319    1.15621426071238
H           2.46039434697551    0.81253994511388    1.34451906157862
H           2.44731616035266    2.47051861385797    1.85663911657543
H           2.36864610828916    2.11816697242109    0.22100745762434
H           1.01052149228159    1.72228959667879    1.20682606240757
