    26
        -50.44244548  Gyration_radius:  2.56268069017 Dipole_moment: 6.896
 S          -2.37481714457150   -1.08568167741028    0.72161519852412
O          -1.90324506646793   -1.09854336281786    2.07676744004741
O          -3.76599470464507   -0.99962469037583    0.47933486836695
O          -1.63729964000826    0.09892723339874   -0.00865597501855
O          -1.81698243905556   -2.32048367969603   -0.03703193749455
H          -0.83003328612638   -2.33810747215870    0.07697560053626
H          -1.06257409758193    0.51655550708477    0.71867521595801
O           1.93311409686851    1.70877054948361   -0.98123960229002
H           2.63404194779220    2.36221699976679   -0.97993405692016
O          -0.30023538940537    0.99859972123162    1.96139371495076
H          -0.77165386779822    0.33499362480898    2.49100240575637
O           0.78970631436676   -2.22601951753655   -0.08279856604733
H           1.15027324799985   -3.07370999116031   -0.34816795519199
O           1.97038789576479   -0.02984871334658    1.17480968400896
H           2.08945185812695    0.51522129038753    0.37564263245795
H           0.61798158148275    0.63688100275050    1.81406045020359
H           1.66656840885770   -0.89765876682113    0.86818157937688
O          -0.33536032878751    2.85167397781965   -0.10224836919287
H          -0.32329982318401    2.55546181447460    0.81944307853565
H           1.11502137377433    2.18420733057372   -0.70669876471659
H          -1.11783565415093    2.45307419816768   -0.49221963479130
N           0.46073222965968   -0.58608860702915   -2.08010914571065
H          -0.46647204283007   -0.26506311766979   -1.82076340862203
H           0.44686966678726   -0.84976860641712   -3.05633528564149
H           1.09728043927502    0.19770107631638   -1.96567633161901
H           0.73437441384141   -1.64368610382277   -0.91602284545978
