    26
        -50.45911272  Gyration_radius:  2.43548033684 Dipole_moment: 3.786
 S          -1.76118247947727   -1.24470151557958    0.17269014878344
O          -1.17525053255358   -0.59727030895367    1.33755502958363
O          -2.04569063266357   -0.29826715668294   -0.89137072668514
O          -0.98221561831523   -2.38492502066469   -0.26178560301755
O          -3.16777998333548   -1.81632176762249    0.62476436438339
H          -2.92763642456771   -2.62041300010588    1.07281013220951
H          -0.04847026455539   -1.64873104708637   -1.40226616890999
O           0.49575124029812   -1.16518867369846   -2.06257537148355
H          -0.02134361981860   -1.17942298277835   -2.87044226039092
O          -1.20326641609584    2.06441174103517   -0.81874378945857
H          -1.66301267121748    1.14756865607427   -0.88256620133748
O           2.10141443084875    1.36707500540380    0.85110123358647
H           2.96850155177847    1.57560428204987    1.19887412886351
O          -0.47625929567591    1.93398542253446    1.57277061644170
H          -0.78838998872614    1.00686695168339    1.67230160290686
H           0.49247121180718    1.86897704622536    1.47027162187959
H          -0.96798835053642    2.15799331993416    0.20621306371635
O           1.06672237686102    1.42573038942617   -1.65532560953572
H          -0.26162231007664    1.89559941906258   -1.27375103342177
H           1.57950371517606    1.47929558585742   -0.82498262630710
H           0.94064962024236    0.46649388120751   -1.83712233552456
N           1.59116036296523   -1.19808413045625    0.93442153589153
H           1.68107102420047   -1.60370725996143    0.01005652180332
H           0.59128626464974   -1.15259851222773    1.13370955970014
H           2.00387728493785   -1.84594329218711    1.59368060477271
H           1.97769950385327    0.36597297750899    0.92971155155152
