    26
        -50.43891925  Gyration_radius:  2.47078273447 Dipole_moment: 7.243
 S           0.22625485843306   -2.28532655437872    0.52857524151687
O           0.39120423384867   -2.23895545381666   -0.91801612720688
O          -0.32164424308541   -3.49528377106297    1.05414395270182
O           1.73476772509829   -2.21769293870749    1.13008968277714
O          -0.39300140227205   -1.05453140203920    1.00780588564303
H           0.30663567767895    0.08250320018124    1.68427343023699
H           1.82395290095954   -3.10921525472917    1.44992688862744
O           0.62974932662656    0.95501028780646    2.09005631841600
H           0.34777268621280    0.92835152773369    3.00621646179855
O          -2.79938595000060    0.64755606198839    0.21957817148152
H          -3.56202597495941    0.96402906258586   -0.26913185442061
O           0.31490416081447    1.77872701354383   -1.63418123307000
H           0.80573736203403    2.49417375761311   -2.03964457998221
O          -1.48166049422407   -0.52186779282856   -1.69027558309703
H          -0.91105847902065    0.20233379283438   -1.97511866334071
H          -0.87185522031954   -1.24196115563826   -1.42484224423055
H          -2.31417093095188    0.02271044135190   -0.39538196357909
O          -0.89292969750614    2.23672546660936    0.54286000977706
H          -1.73403587166342    1.60364046238438    0.47561214128470
H          -0.25983442253180    1.77929697332998    1.23389290092284
H          -0.41326525342235    2.11656081592976   -0.36543802334413
N           1.95583638075402    0.03907589284643   -0.71710481590815
H           1.43589066440493   -0.83913134907620   -0.82011176504269
H           2.11028922891382    0.16173463215499    0.27679817148185
H           2.85826775121916   -0.09068378883877   -1.15716270691768
H           1.01360499295937    1.08222008222237   -1.29341970652507
