    26
        -50.44238946  Gyration_radius:  2.52064383044 Dipole_moment: 5.650
 S          -2.25224325852997   -0.59982867905002   -1.04103572157837
O          -2.23941907104336   -2.01470202074045   -1.22740022082289
O          -3.48684146201614    0.08721847173637   -0.91523076045184
O          -1.38976553785822   -0.26314162532253    0.23053438465186
O          -1.38703176717078    0.02694735802886   -2.17590825642778
H          -1.15124564008578    0.96490651975557   -1.93169260164278
H          -0.55149073776285   -0.77738988112493    0.02786540769485
O           0.41764061840513   -1.81167916887527   -0.68220632355586
H          -0.32669814089749   -2.34427466954784   -0.99838591197121
O          -0.59840132529391    2.36546951695901   -1.37425786958106
H          -1.18267808271126    3.08089775659583   -1.63080850704548
O           1.77318123491462    0.77470208630745    1.47064141015806
H           2.54558838608439    1.28589015964012    1.71729886664585
O           1.70194440332857    0.60988716340337   -1.17290114215458
H           1.81251685626774    0.68318462674379    0.48398766448356
H           1.32486264555152   -0.27054607386659   -1.31448559671661
H           1.05255381345582    1.24634621001863   -1.49484728328700
O          -0.56957965223104    2.16168946326107    1.23422602906636
H          -1.21539709984795    1.44628975059839    1.27185132128466
H           0.28491265430148    1.73473150903434    1.44834868687217
H          -0.58071617984256    2.36173204940899   -0.37218052449332
N           1.24232389462150   -2.19821348523465    1.81275918786315
H           0.49324204750198   -2.42414009009823    2.45496113584701
H           1.45594136190520   -1.20903924107071    1.92252406731730
H           2.06048918717143   -2.72689677304679    2.08698854555003
H           0.76631084177834   -2.19004093351377    0.16935403229979
