    26
        -50.46271456  Gyration_radius:  2.624489784 Dipole_moment: 2.666
 S           2.03882065651941    1.51964708839810   -0.56864010947044
O           1.66444942364220    2.89137694428592   -0.34526634056829
O           2.08679245035878    0.69874066971471    0.62002415109148
O           1.20744828111062    0.87851959591393   -1.60525985323550
O           3.51661567495241    1.54160911663169   -1.16707096081771
H           3.56154937619129    2.38842450792451   -1.60160381437523
H           0.70142596201018   -0.64172605598723   -1.65555103036301
O          -3.02236348923513   -1.39187339400323    1.31418831801744
H          -3.90277718822685   -1.04567538274792    1.46411350566651
O          -0.71655609470455    1.62831109363656   -0.02554928381211
H          -0.36009758369799    2.49406390348575    0.20673319390978
O           0.31199715969712   -1.55496054883922   -1.63621285544201
H           0.53566275777649   -1.95623006145007   -2.47697582112225
O           1.27023038358470   -1.76671004655776    0.92132378715218
H           0.95470926659512   -1.96479068638644    0.02283943342065
H           1.80196792553774   -0.94448219139223    0.82416001171147
H          -0.06484015156851    1.32200997225436   -0.69821695462231
O          -2.21609768356802   -0.60777800972410   -1.07485188336054
H          -1.96078608997575    0.30748537318921   -0.90897342143062
H          -1.39122173095879   -1.06325923668126   -1.32470900970305
H          -2.81933319698542   -1.22959368673956    0.35816319178234
N          -0.65063593092570   -0.29529196758280    1.89466977717773
H          -0.62863523723440    0.50682138990506    1.21931646186700
H          -1.59266870585290   -0.75067418262394    1.84429939316035
H           0.10832713648889   -0.99221432522599    1.56830032475792
H          -0.43398337152654    0.02825012059816    2.83074976861054
