    26
        -50.47304681  Gyration_radius:  2.48652222946 Dipole_moment: 2.162
 S          -0.66504547286237   -0.78720712520179   -1.85751220459976
O           0.63289350428415   -1.41526947293626   -1.63935923149464
O          -1.41515186263799   -0.63555632826826   -0.62532813114985
O          -0.55948323769172    0.43343790458916   -2.63038599304183
O          -1.50195821698683   -1.80105709823764   -2.74417284014645
H          -1.10494872989013   -1.69595132474791   -3.60231552623925
H           0.04466636451575    1.67437843523427   -1.80983934633659
O          -0.14192977271468   -2.54543588151669    0.63008440875041
H          -0.89886512146265   -1.98376906037926    0.37380658427058
O           0.46085678754401    2.36445434532131   -1.23140615663558
H           0.66654257971887    3.10472104017087   -1.80450826206369
O          -0.65627108598229    0.99095951433266    2.94177720467380
H          -1.42953041297186    0.62021764496370    3.36963195556801
O           2.06895887304646    0.36808982585918   -0.29604650343134
H           1.66926471187754   -0.30701140623143   -0.88489752510189
H           1.63727224170079    1.20609022966472   -0.54115735206045
H           0.38658052120693   -2.52462919583717   -0.18661393924992
O          -1.52132797044773    1.75019174503285    0.60099163694552
H          -0.85089207487768    2.21202426965365    0.07502198671255
H          -1.63651941727929    0.89095596297482    0.15137635515724
H          -0.98899276382101    1.38248849318355    2.08553688809501
N           1.17246805365952   -0.66404699134460    1.94962407133122
H           1.60799503849138   -0.16573287476096    1.11206231565732
H           0.65646465405865   -1.50170772008196    1.54661502040081
H           1.88935424211171   -0.95394053018150    2.60514912204429
H           0.47759857739824   -0.01669441123170    2.41186546192940
