    26
        -50.47304675  Gyration_radius:  2.48625550799 Dipole_moment: 2.176
 S          -0.64548123568783    1.97055460148603   -0.45650808306985
O           0.73981704346581    2.13288870478963   -0.03025723224277
O          -0.84456551120446    0.75712810477057   -1.22593399836557
O          -1.57735935142571    2.12441108698134    0.64174213593323
O          -0.94035551067731    3.16342672548546   -1.45869646433366
H          -1.00133341693904    3.91068319665319   -0.87299437168999
H          -1.61126248125646    0.87591038420767    1.65062633482754
O          -1.52943210151276    0.07703326121192    2.23295444944214
H          -2.02800919378273    0.27357850426522    3.02764543682078
O          -0.04972747280142   -3.10746294825418   -0.63844058160681
H          -0.23106558832904   -3.36501140665318   -1.54353724059538
O           1.65986886672573    0.56081766353995   -1.95656414351031
H           0.68889189209860    0.49567482399423   -2.04055649910536
O           1.15480746535191    0.22121353158866    1.76455749770793
H           1.07262568002969    1.02461889752708    1.20773162360650
H           0.25349812966095    0.04316147214646    2.08799619533741
H           1.74083301541645    1.31182323250257   -1.34320521630950
O          -1.94115844680953   -1.40350151899657   -0.06971706476816
H          -1.65941530696983   -0.62665900581722   -0.59010831690147
H          -0.82223453512838   -2.53642889430902   -0.36591201735374
H          -1.92286280705214   -1.09960626689972    0.85043893767361
N           1.91783778389457   -1.38058345117902   -0.17549843671654
H           2.83377925218919   -1.79733981531512   -0.05300857000413
H           1.91713209089008   -0.67741736400905   -0.97293087227853
H           1.18842156183958   -2.12102208081171   -0.36326774239926
H           1.63675018797503   -0.82789140889936    0.69344422989827
