    26
        -50.46026507  Gyration_radius:  2.46659324836 Dipole_moment: 6.816
 S          -1.90229366455133    1.20880614062479    0.09392756376363
O          -1.06483890307059    1.52719110397494    1.26452551890831
O          -2.42121828578169    2.37705768817446   -0.54085946600810
O          -0.84179226099591    0.57118651732752   -0.96773877489995
O          -2.80446392037951    0.11443580222410    0.35419774183760
H          -2.05489497618967   -1.24492448046409    0.68494447236126
H          -0.31331465091914    1.34331470037370   -1.19210784432139
O          -1.55124287689971   -2.07341933516002    0.92198453882235
H          -2.17499675546016   -2.62504660292578    1.39655946059503
O           0.67839468841163    2.67302022355263   -0.20231175899527
H           0.46095531576100    3.58640133396930   -0.39387926884488
O           2.12357958187162   -1.41472195895224   -1.60269162618614
H           2.28430062947930   -1.19941836574492   -2.52231273354987
O           0.32732868023898   -0.50304735246393    2.06174921715043
H          -0.00003643440354    2.36838338596545    0.46060433973711
H          -0.25836219462926    0.28550499821054    1.94239215331003
H          -0.21282377471879   -1.24452214071632    1.72511328719833
O          -0.40584440937819   -2.08087043303063   -1.56146545709226
H          -0.74030169962798   -1.17389493841645   -1.61908003455881
H           1.19767356182108   -1.78370183053412   -1.57070597977445
H          -0.74312602872028   -2.39012555753447   -0.70436173540899
N           2.10485160842805    0.34736714728418    0.38652247916358
H           2.15097320552271   -0.30785046662902   -0.44058891547674
H           1.74671575297599    1.27026083318441    0.10124563194134
H           1.39563152148491   -0.07195707597197    1.10796505663155
H           3.01914630974224    0.44057064367246    0.81637214368898
