    26
        -50.44023233  Gyration_radius:  2.54411554253 Dipole_moment: 6.139
 S          -2.10381583332048   -0.94802766519154    1.01026501089006
O          -1.14207686362364    0.06010033989850    1.36331786868779
O          -3.36853844459176   -0.89033748080896    1.64724262468255
O          -2.25809967641401   -0.90783055063672   -0.54978513581280
O          -1.48712148413050   -2.35139722626927    1.21025807090881
H          -0.70969639150013   -2.40688569088763    0.57973991837895
H          -2.02850813741986    0.01378154954690   -0.83318452264000
O           0.42291774015843   -2.45519528274228   -0.52169933378555
H           0.13976957436843   -3.10795524655653   -1.16520278386455
O          -1.65461955900993    1.53411945543335   -1.25100677309514
H          -2.47262302703357    2.01472779065532   -1.11233359861160
O           2.32991829016690    1.13890431848121   -0.16938929309028
H           3.28549826280861    1.19113627363368   -0.20138365024269
O           0.64462928071455   -0.19745713171365   -1.86557441999460
H           0.49472740435215   -1.59793023361502   -1.02359238689326
H          -0.16518862067121    0.32285515397595   -1.88444194670790
H           1.29151250971562    0.31939910616967   -1.34906418489397
O           0.29546981894452    2.94007561755409   -0.13031760019450
H           1.03441305223114    2.31479161834881   -0.00523735068754
H           0.60715787026599    3.60839914255621   -0.74380466423968
H          -0.97317295116088    1.99902967963315   -0.69994469731004
N           1.58540413298438   -0.59657882872163    1.63032884661137
H           1.92657067794296   -0.63356009324243    2.58205935076172
H           1.60524118124877   -1.53581956967638    1.25016619724055
H           0.60354135694269   -0.31180042970372    1.66277003658915
H           2.09668983605048    0.48345538388262    0.56981441727672
