    26
        -50.46026526  Gyration_radius:  2.46608879134 Dipole_moment: 6.814
 S          -2.16662365449293    0.01696849436391    0.62365776925302
O          -1.31648812230527   -0.08709538995922    1.82352257400673
O          -3.19668117593230    0.99450957744057    0.76690876510049
O          -1.15416461452839    0.61357524942630   -0.50623725286582
O          -2.52135120019115   -1.27737395013161    0.09630533479549
H          -1.26457841958668   -2.11986744275872   -0.38261369921920
H          -1.00454835621917    1.50367504858534   -0.17221279590721
O          -0.44955678662720   -2.63447280500463   -0.64197802104612
H          -0.71903757777764   -3.55423029830086   -0.64831386780098
O           2.16886874120416    0.79931044331848   -1.93009379356898
H           2.06175103661658    1.54825424724825   -2.51786110145326
O          -0.43856882716634    2.28429368582412    1.49507188062542
H          -1.02366533396376    2.95031477446944    1.85926477197150
O           0.13861214468000   -0.73959023032768   -2.52441024609392
H          -0.52044226530094   -0.20355460367215   -2.05958330226655
H           1.47659649533229    0.13781714094515   -2.20882273082429
H           0.10700158817652   -1.59001514378777   -2.05560876724972
O           0.86303513405777   -1.40701289392383    1.37375264150382
H           0.01026867063658   -1.02226678781762    1.69603931808749
H           0.59417580970746   -1.95972008263104    0.61401895874932
H          -0.81654846787515    1.40833746005854    1.78229684746631
N           1.84793825709086    0.88916969800100    0.70613585034040
H           1.98700455950028    0.92142597736273   -0.34048860556831
H           1.49483814957197   -0.11415079633910    0.96720987406199
H           2.72065821045704    1.08316340747756    1.18586873865290
H           1.12150600502388    1.55853523011894    0.99817086935096
