    26
        -50.45004634  Gyration_radius:  2.53786569523 Dipole_moment: 6.010
 S          -2.04102125925013   -0.99306672321371   -1.30733352371794
O          -1.74205194630138   -0.39118538777754   -0.02629697886081
O          -3.37943854621233   -1.37266042081001   -1.55421308296115
O          -1.55607904417623   -0.02826954508855   -2.42122719291635
O          -1.12545406341352   -2.23438881226403   -1.47845965037763
H          -0.23267317259061   -2.07270174984377   -1.06113960201478
H          -0.89702816840640    0.64587689998935   -2.08915377625065
O           1.16259367642749   -1.95339980035822   -0.28966722422400
H           1.57997105249733   -2.81548787038165   -0.25453165980744
O           0.18367253903834    1.76446034282152   -1.74162589133701
H           0.52677407299349    2.11868648546795   -2.56360076763537
O           1.21414474183981    1.46255965439045    1.99929993691163
H           1.57864062891714    2.24883927634984    2.40713136326854
O           2.10688413051497    0.63248145052987   -0.43900966593018
H           1.91757717915960    0.90510043218484    0.48191949812823
H           1.90597781188158   -0.31654615971310   -0.47517409055940
H           0.96258272954166    1.33511905669212   -1.26675209966677
O          -1.02581025352968    2.09509095033301    0.75168425746886
H           0.33991813564807    1.73216697759386    1.60947493585950
H          -0.71037528212760    2.36422235998642   -0.12094479899033
H          -1.43658190875553    1.22587236521689    0.59659197932771
N           0.12080549301035   -1.28399233279150    1.97025145311717
H           0.80066524377860   -1.74953360616876    0.65332804126180
H           0.58958124286469   -0.45108478740395    2.31376243448189
H          -0.75632472789237   -0.98267744677655    1.54977602173251
H          -0.08695027541724   -1.88548161899578    2.75591007368630
