    26
        -50.46383711  Gyration_radius:  2.4722724298 Dipole_moment: 4.071
 S           1.02329316647879    0.80361556908282   -0.98277324084805
O           1.48940277139868    0.83393510108772   -2.36943549185310
O           1.02184801200544    2.09159949909132   -0.33499376769314
O          -0.46677449269107    0.31496447318018   -1.12473601015313
O           1.71415825447028   -0.22082713420180   -0.20213988453988
O           0.88236845653742   -0.21030766616861    2.33505593591443
H           1.41439787283252   -0.21351048774574    1.51633382867373
H           0.63244505689169    0.71469861555575    2.47394450557800
O          -2.54066314001811    1.01002383204386    2.09278834618431
H          -1.75324113566375    1.58094229699063    1.99512805075504
H          -2.68080170423609    0.90702624966187    3.03567778746464
O          -0.16592335658604    2.35628393270655    1.94824279056338
H           0.26201604551006    2.27283794894979    1.05550198819052
H          -0.04507767631386    3.27234699294494    2.20290284126549
O           0.54808183517636   -2.46623440542011   -0.80698968936733
H          -0.24138966052392   -2.38552070069977   -0.25576218369697
H           1.14192015323818   -1.74318256327149   -0.48735647065327
O          -1.20208944856847   -1.01399507429131    0.93663744540678
H          -0.77480508255981   -0.17551063116329   -0.29425179063058
H          -0.43927650897101   -0.87314090693664    1.55719745357885
H          -1.90171049589949   -0.42576388888419    1.28871603253300
N           0.40817336684197   -1.31027003597477   -3.14836929114861
H           0.92916829874215   -0.35957823570173   -2.88097037252139
H           0.88318110555042   -1.79365112040709   -3.90423715835832
H           0.40786118498416   -1.89130946120595   -2.24201667516216
H          -0.54656287864248   -1.07547221921411   -3.40409499947419
