    26
        -50.44619982  Gyration_radius:  2.55311607072 Dipole_moment: 7.610
 S          -1.51971258053308    0.49247580060001   -1.81517512047200
O          -0.12378696089624    0.27429665818801   -2.12130767278489
O          -2.45064795198011    0.24692651901992   -2.85094366425890
O          -1.84197190250436   -0.36687122996935   -0.54772507945641
O          -1.71556344653848    1.92173032200706   -1.27623729160097
H          -0.97155061324882    2.22159522779697   -0.66078760911811
H          -1.46092745857428   -1.27241258177652   -0.81161696659377
O          -0.61611323271688   -2.36546351417905   -1.47090752648071
H          -0.17370899091125   -1.79114843712679   -2.10798848972275
O           1.57025690604773   -0.64325358991809    1.65899201940584
H           2.15317835181692   -0.42041180227248    2.38571121681866
O           0.19588522774465    2.77084276643039    0.22501763240168
H           0.43963429762858    3.62398219005411   -0.13932287716157
O           1.23035552573563   -3.00297970154657    0.35394893248052
H           0.92786290285815   -3.62460277710976    1.01766765719659
H           0.08429611629493   -2.67380741135511   -0.84758316325932
H           1.42146533595745   -2.16509619127846    0.81655741309355
O           1.90608580923501    1.00191111099642   -0.53065319105333
H           0.94037497646594    2.13506042255080   -0.02334538421598
H           1.91558774759317    0.31938244373667    0.16450558933979
H           1.31705405656578    0.66609071992398   -1.23300933677143
N          -0.74130781751955    0.57410169055765    2.02212653315339
H           0.68067279333045   -0.21268864827458    1.85116320007826
H          -1.28545651119988    0.54490475196152    2.87500717416388
H          -0.56628034960399    1.54736239137477    1.79407777323266
H          -1.31568223108933    0.19807286963288    1.27182823159312
