    26
        -50.46862854  Gyration_radius:  2.47497518174 Dipole_moment: 4.028
 S          -0.41279562872754   -1.38755571030813   -1.71773494898371
O           0.74076383441253   -1.51634791557254   -0.81096392679164
O          -1.61987092298373   -1.12101862622513   -0.98436303177369
O          -0.13516130442136   -0.47236243865879   -2.80530404070668
O          -0.57556849925464   -2.81475931399576   -2.39524689442557
H           0.00554096898001   -2.72974358880998   -3.14374669186589
H          -0.24246169340538    0.96254980271503   -2.08587572168400
O          -2.27894832922867   -0.32480624192839    1.47165368119162
H          -2.33892247520467   -0.63702852314134    0.54937649624647
O          -0.21185210205916    1.82710079178003   -1.60692390998246
H          -0.62393515411364    2.46769329280849   -2.18919015298976
O           1.55914287719546    1.05435970512072    1.97596160565775
H           2.30844251373057    1.40414469667387    2.45819316781761
O           2.10857505435172    0.77736805492717   -0.54759612251353
H           1.84283821110196    0.99113939212346    1.01575592823352
H           1.75285122417289   -0.11425129821972   -0.73392332394671
H           1.49833345668886    1.37899687244541   -1.00075727011418
O          -0.98464234354749    1.96641667600723    1.05314557219441
H          -2.01333886341125    0.62128350578384    1.39272212069098
H          -0.13684841308990    1.83304112335005    1.49809475711826
H          -0.78903898217362    1.94475742217297    0.10064380161238
N           0.12183047420096   -1.24183992508445    1.72571549713264
H           0.71045846527939   -0.44248315980979    2.02865858990189
H          -0.92236471234985   -0.92224756356150    1.73312882790096
H           0.36202039023175   -1.44554875590236    0.71345697807162
H           0.27495196362296   -2.05885829469093    2.30511902200859
