    26
        -50.46862860  Gyration_radius:  2.4749880982 Dipole_moment: 4.025
 S          -0.17435276996507    2.01827123367755   -0.97075143549561
O           0.67675846916833    1.73448165033070    0.19740084243809
O          -0.04583644153266    0.98959634118371   -1.96629259832534
O          -1.53238589642927    2.33096162439172   -0.57650554549274
O           0.40488535169165    3.35818163919920   -1.59654208429001
H          -0.07765468056199    4.01393346794264   -1.10423439299817
H          -2.12502680386889    0.88313648881139   -0.20113318936103
O          -2.43921189843050    0.00262509876676    0.12090297426578
H          -3.35275474399995   -0.07221013797170   -0.16034081896557
O           0.91023277625703   -1.49402741786618   -2.09904927647742
H           0.51979948657406   -0.63494686533348   -2.34650204823097
O           0.74470613192983   -1.69855404616685    2.00213093060227
H           0.90782243501843   -2.07211680104601    2.86828091796401
O          -0.88040110938348   -2.25644193982944   -0.27889772039160
H          -1.47015711409875   -1.48650322187260   -0.20561288090920
H           0.19711425466268   -1.94990507326001   -1.59361558786713
H          -0.37327637390280   -2.27771557014512    0.54381370230775
O          -0.65219311202090    0.48518516094971    2.16566888030072
H           0.19208521552513   -0.87390692767870    2.14721687748541
H          -0.16746025968137    1.07972186641001    1.55915784160144
H          -1.47755313378975    0.28589633354995    1.69791538575235
N           2.07536078274203   -0.47581404767049   -0.03138339737835
H           1.76716809425732   -1.03751671779738    0.78518442871965
H           1.58551136855937    0.46249448182984    0.02747895772575
H           3.08165014517851   -0.35802872421314   -0.04511548616286
H           1.70516979609436   -0.95679790618970   -0.93917531680733
