    26
        -50.45966287  Gyration_radius:  2.59333010418 Dipole_moment: 3.963
 S          -2.39993014263319    0.33672460614534   -0.18977827450043
O          -2.07313098904254   -0.30014187481277    1.08523901384101
O          -1.54065395490601    1.47098615579158   -0.43879710713002
O          -2.46539933067372   -0.61943878276765   -1.27860593899974
O          -3.87499918946869    0.91121096606361   -0.03135065288346
H          -4.40411327091179    0.12043136993716   -0.06693699009217
H          -1.02816843824380   -1.26757858954821   -1.56926078658746
O           1.81212669567038    1.44715970318709   -0.23214560505262
H           2.17855301961609    2.33120606162522   -0.26917942629959
O           1.76492385351198   -1.40820869150877    2.45405584331300
H           2.64610818398646   -1.39015585802915    2.82968307858215
O          -0.12251184543523   -1.58788561987090   -1.81519518205917
H          -0.25813424748999   -2.36632162454562   -2.35774326569770
O           0.29878297616530    1.11092827348608   -2.29526871551890
H           1.26932374069058    1.34611815963863   -1.07583775686975
H           0.25028861247280    0.14686655653226   -2.39497251507912
H          -0.49734615146105    1.34750436430517   -1.77415487739839
O           2.07682609231021   -1.36648838408241   -0.16130592028993
H           1.29422660182669   -1.56398029051916   -0.70427147333995
H           2.22546260124108   -0.41714163652153   -0.26936470831538
H           1.88263979789369   -1.57393060914700    1.48394346316065
N           0.19941343117851    0.67289115851312    1.82557694639248
H           0.03860376216071    1.40314972796955    2.51060027012803
H           0.77129250134093   -0.11201244669655    2.22590753269160
H          -0.74947720010040    0.27158616708249    1.51525201116630
H           0.70529287030574    1.05652114776845    0.99391103683795
