    26
        -50.45708401  Gyration_radius:  2.5147250468 Dipole_moment: 8.098
 S          -1.48841649309381   -1.69319678336992   -0.06086282728156
O          -1.29500347952355   -1.65196070830077    1.39306741857207
O          -1.43497915232770   -0.38356437654194   -0.65488337928882
O          -0.57423033343742   -2.64169243825743   -0.67961510632298
O          -2.94859267862991   -2.25298407252128   -0.28892724075893
H          -2.90062073247927   -3.11637322160732    0.10882572725492
H           0.81837712143570   -1.92922181292965   -0.78661068490739
O           1.71073163438342   -1.48601826596675   -0.70813861845792
H           2.33420320971151   -2.06778667582609   -1.14665768232827
O          -0.74998515297831    1.72811690832800   -2.26310777391932
H          -1.06892483373501    0.84338289812886   -2.03156811078575
O           1.04046111245740    1.99942895072427    1.21334567933341
H           1.60696939324731    2.71927541971811    1.49205802265357
O           1.63184667808861    1.30857841126905   -1.18936105451786
H           1.28066506312920    1.80400300545312    0.24851574916919
H           1.66991404308257    0.34121207470953   -1.18001509399662
H           0.81537666540889    1.53289692940366   -1.70543043665442
O          -1.67712749678247    2.19922751325108    0.32049834438551
H          -1.15412096058807    2.29250362786579   -1.58326526817427
H          -1.78562820902571    1.25985135758352    0.10606305183399
H          -0.83198934623090    2.25905395536890    0.78328349629302
N           1.01873987037694   -0.60958514451852    1.74607390542841
H           1.47346813721966   -0.92500888762372    2.59621010920672
H           1.50401175833258   -0.96483890269197    0.89599794076754
H           0.01120269244661   -1.00522052626834    1.68323333464699
H           0.99365150951095    0.43992077461901    1.69127049784936
