    26
        -50.45612326  Gyration_radius:  2.45574338634 Dipole_moment: 8.923
 S          -1.92780043456014   -0.38363077611954    0.76701860322612
O          -0.80570722079390    0.14367749773496    1.56995994949464
O          -3.18438641655120    0.14516195853020    1.20039319990979
O          -1.64670901444312    0.16024646698894   -0.71081181419559
O          -1.82981089198563   -1.82593138395441    0.63461408863786
H          -0.52999706644081   -2.47114182107516    0.11494271144050
H          -1.78591226938254    1.13097714832090   -0.55741138085128
O           0.35281541206488   -2.85227613291474   -0.18817530581267
H           0.24659751923103   -3.80342157868617   -0.14110936260191
O          -1.97884497665068    2.45872448242242    0.37731176214065
H          -2.54572313237622    1.93046551639476    0.96075063458567
O           2.10768502785749    0.70261042227005   -1.15503839781797
H           2.83801596723484    0.83937966500625   -1.75945097860540
O           0.36121817772065   -0.92739867866538   -2.18056297329909
H           0.43798374525380   -1.75929103767293   -1.68549726236899
H          -0.46744399199493   -0.53136801223287   -1.85840723068952
H           1.44365952865277    0.12811431545761   -1.63701467623692
O           0.82168590371506    2.67678894310143    0.42386143673876
H          -1.09318219833402    2.47433688968194    0.77877148277265
H           1.22438910037989    2.02190389486717   -0.16517179869867
H           0.69107259279485    3.47051922730994   -0.09859091775519
N           1.49462790279445   -0.75539894063522    1.06982705062192
H           2.07368044481396   -0.80525689822459    1.89959528874090
H           1.91775808913259   -0.15129047607128    0.34403159204956
H           1.29099289358788   -1.69156889631334    0.67280470577136
H           0.49333528827817   -0.32493177552168    1.32335960279943
