    26
        -50.45481290  Gyration_radius:  2.63493674708 Dipole_moment: 5.281
 S           1.21893489960623   -2.22412033865905   -0.49702157104986
O           0.58455250151630   -3.07210555897895    0.48492692680437
O           0.41401163976901   -2.12481170497114   -1.71932568122197
O           1.56015516516057   -0.91001923705612    0.02332907523306
O           2.58964915228648   -2.90471332618530   -0.91207844975821
H           2.36281900744051   -3.81402451713865   -1.08721979825578
H           0.42590171546498   -0.72107137023957    1.22969474177446
O          -1.57508362202571    1.59317199891008   -1.02833333056425
H          -2.15239858497665    2.28719776427183   -1.34693740914726
O           1.24141615713207    2.92342040404198    1.20378820021927
H           1.49508501431591    3.82858515874888    1.02203295743971
O          -0.41397281652598   -0.87929059621610    1.72396684316360
H          -0.31766309921198   -1.79481144811259    2.01182303521790
O          -1.18287976209019    1.85409929125382    1.51774222559431
H          -0.32336569531436    2.33123997773306    1.54245762989018
H          -1.44920134608143    1.75482903668082   -0.04160928524814
H          -0.98484281445359    0.97106857005444    1.85517502305255
O           1.30948633260299    1.54046059922075   -1.07462173307608
H           1.52928648354673    0.64336948017043   -0.76287240054727
H           0.36988636267942    1.52093549110975   -1.30014920056613
H           1.40038985830646    2.41829403336672    0.36922724006683
N          -1.65356463705723   -1.04891437921816   -0.64907894645582
H          -1.75159469401957   -0.05662317674653   -0.96439205740136
H          -2.52002835215140   -1.56595354440191   -0.75111020440951
H          -0.85211220496990   -1.52031172253878   -1.20282031316574
H          -1.32486665094571   -1.02990089510152    0.35340649241120
