    26
        -50.44466315  Gyration_radius:  2.5338327238 Dipole_moment: 6.853
 S          -2.07787006317426   -0.81227895602069   -0.87015005762776
O          -1.85218449221758   -0.84942153071709    0.54776369605957
O          -3.22043835857204   -0.11347361193208   -1.33488517813951
O          -0.78591191497814   -0.16955689358727   -1.52410806762345
O          -2.01544873729475   -2.22671531889281   -1.44933691598483
H          -1.33355718111109   -2.75020331411450   -0.90889044027335
H          -0.74770942065540    0.80091359333357   -1.26716638789656
O          -0.16276679429679   -3.45277382579313   -0.19084901720389
H           0.27407782624312   -4.06006052232941   -0.79228953180953
O          -0.45771863062867    2.27218738774546   -0.79259009493766
H          -0.56273121725740    2.89148734586431   -1.51673739527655
O           1.28858089638586    0.29167596818490    2.09534617591319
H           1.30734904972559   -0.19118476008693    2.92261318434738
O           1.32183122770267   -1.29008934288099   -0.12426866918110
H           0.46930080656073   -2.69969322743358   -0.04157746910232
H           0.67629088850248   -0.83725026106279   -0.68721439698021
H           1.33042617161753   -0.79244370080508    0.71908376538625
O          -1.10140187503980    1.36109788435308    1.82295723387567
H          -1.52250407587160    0.54092686504424    1.49890169348876
H           0.39384012032555    0.72515067960869    2.05651307412844
H          -1.07230163042311    1.94851171767232    1.05870328134059
N           2.08284477792331    1.89023056195294   -0.24501531167659
H           2.73040238535672    2.66620428769562   -0.19329681343667
H           2.47187554800110    1.19389988832041   -0.86957430561544
H           2.03064585265505    1.46442820507786    0.67743859165405
H           0.53507885050672    2.19843086076498   -0.59137062341119
