    26
        -50.45481148  Gyration_radius:  2.6357894816 Dipole_moment: 5.259
 S           2.27647465456589   -1.16445866308788   -0.38431283462508
O           2.63006612082126   -1.46947189625101    0.98247878303377
O           1.39688527941280   -2.19120144130710   -0.95318704942149
O           1.71034400035685    0.16560590899295   -0.54189133231872
O           3.61002193307240   -1.18293125654937   -1.24205669027552
H           4.06377936657490   -1.97288230632233   -0.96078099411712
H           1.04265389359990    0.42635384585984    0.96355011909328
O          -0.89900573478123    3.22748351394866   -0.55827412163646
H          -1.38325692405963    3.84901377548752   -1.10225509616970
O          -2.40490897040120   -0.29537015795936   -0.45853531846722
H          -3.35009574927776   -0.29745794898858   -0.61053599402498
O           0.67422226945154    0.19146659655089    1.84878467315089
H           1.43336375001968   -0.20746819176377    2.29059607240209
O          -1.78417583438692    1.51473635867560    1.28607161122063
H          -1.50915299902628    2.26405725180043    0.71163776819563
H          -2.22386660935934    0.43349201121654    0.21340630764737
H          -0.96958383225476    1.21746816286256    1.71126093969953
O          -0.37504289772599    1.05044154519205   -2.00504804066306
H          -1.06198659904580    0.45174793820019   -1.68293339870060
H          -0.61491273125389    2.49613935083042   -1.15950556527058
H           0.45943179896461    0.73833127128691   -1.60949385208705
N          -0.56559049094899   -1.87180693586199    0.66602024098709
H          -1.37969189611961   -1.43993228734292    0.17173944407327
H          -0.14360501826095   -1.12911434310558    1.28550464849142
H          -0.83645936863092   -2.69385575634500    1.19453256660193
H           0.20409257867739   -2.11038633603502   -0.05677289680884
