    26
        -50.46709001  Gyration_radius:  2.46698579928 Dipole_moment: 4.128
 S          -2.27069782846657    0.72175351484595   -0.10752342627467
O          -1.18289167768303    1.49786444923570   -0.72345177488064
O          -3.41193771191240    1.50171964755198    0.24027027178222
O          -2.74889875572625   -0.29776451904112   -1.24964751406775
O          -1.72996999350197   -0.13151756914773    0.94270037489336
H          -1.10335791315079   -1.39289447145688    0.15180320892514
H          -3.49691775942819    0.17518334704644   -1.59640608277479
O          -0.66526850356919   -2.10989408623560   -0.36925991532179
H          -1.36942157890481   -2.69629745360297   -0.64863979623828
O           2.52199291214691    0.21166646444320   -0.87269069183461
H           3.25010265513088    0.29847853337761   -1.48797504323013
O           0.41402752178595    0.06034923336910    2.57275754060646
H          -0.49067315195817   -0.08451102979131    2.24207503322213
O           0.29234456072926   -0.25104584051350   -2.10440328544565
H           1.70560167912867    0.00822763419663   -1.42432511906221
H          -0.02733501233410   -1.06555480500991   -1.67273013803130
H          -0.29661240008198    0.44941671541305   -1.76101405250235
O           1.70194350109097   -1.71269291630275    1.05176010696498
H           2.16931571513814   -1.14969347459513    0.41816237025026
H           0.93931476450028   -0.69507318163088    2.21457860986612
H           0.94177214174075   -2.07329228863746    0.57107594034604
N           0.98876517342923    1.77610349621601    0.72490340315924
H           1.22835694723043    2.72560625409589    0.98562661678780
H           1.73730073014418    1.33301632839244    0.15563219666088
H           0.80710138484085    1.14552235448062    1.59322361368064
H           0.09604261950544    1.75532365298795    0.15349755204336
