    26
        -50.46709000  Gyration_radius:  2.46698694853 Dipole_moment: 4.129
 S          -1.64188666975839   -1.23911532126836   -1.20722160516054
O          -1.79809231903607   -0.93973806893848    0.22493092599075
O          -2.34924146092718   -2.40015125324319   -1.63546579384593
O          -2.31191889293178    0.00565419445199   -1.96500852197713
O          -0.23218308926088   -1.17394399783268   -1.57043800724942
H           0.06709045471540    0.40483085546510   -1.73576072332767
H          -3.17409750176212   -0.35085568688601   -2.14677880322517
O           2.05982536759822   -1.58434383480088   -0.20333285450828
H           1.37630990472016   -1.60498601843137   -0.89699757767360
O           0.23116686837436    1.37965205416450   -1.75346082581670
H          -0.12224237578063    1.68816995863456   -2.58871978334556
O           0.69173624846864    1.36744559661840    2.19509352223106
H           0.61926038776418    1.98530553691611    2.92258879393059
O           2.41262880693938    1.05508750818724   -0.04538617465921
H           1.98515908365674    1.27695754733229    0.79419862504424
H           2.40594531982898   -0.65969952601834   -0.21536278076057
H           1.79060098787385    1.32797619626930   -0.73645239169278
O          -1.24950779119113    1.66048683011697    0.50743409697854
H          -0.78163858259188    1.79102042995259   -0.33875055089454
H          -1.61919482748996    0.75811261546024    0.44043558398180
H          -0.07754375164692    1.56347913699595    1.57706458863773
N           0.34293066627413   -1.27640549737927    1.70618133735795
H           1.12671188234094   -1.50358276511233    0.98594411730097
H          -0.55842603529249   -1.21502220149359    1.15148012037702
H           0.27355941874740   -1.98169045300341    2.43054656662650
H           0.53304789078167   -0.33464384625877    2.10323813565861
