    26
        -50.44103453  Gyration_radius:  2.55190121046 Dipole_moment: 5.557
 S          -0.64137454540979   -0.53115399050930   -2.33627439053964
O          -1.66088812568615    0.37911176710136   -1.89596513075828
O          -0.31365361237855   -0.55464909387654   -3.71445338627638
O           0.64580064632416   -0.23572851866414   -1.48456686033318
O          -0.98172803058861   -1.96193149826824   -1.86058570185622
H          -1.42402798190079   -1.89834979826009   -0.95682289439896
H           0.61421140380818    0.74855717598823   -1.27727087201928
O          -2.11536538443406   -1.74427484403016    0.44368823811961
H          -3.05499926155068   -1.87009034770770    0.29767456904027
O           0.57444040416921    2.25925241337843   -0.94886931744316
H           0.75921761659312    2.82964022224821   -1.69635284621241
O           0.69603465821927    0.62678738250207    2.15131780903762
H           0.39964480090745    0.54471885357153    3.05835758988823
O           2.49599982895320    2.15923626842466    0.86681523205493
H           1.89113855148138    1.68919875635775    1.47555773139683
H           3.14449964553146    1.51147639842076    0.58411215431542
H           1.29955254126440    2.38268071910961   -0.28641096295251
O          -1.74436556372533    0.79592693892903    0.76137138456883
H          -2.00234271958235   -0.76618856709544    0.65563095873358
H          -0.85505722000670    0.98256458250502    1.10314312964344
H          -1.72099180656619    0.94251666050819   -0.20200536672472
N           0.83447678145173   -1.78494847789111    1.04375268063305
H          -0.09610671581796   -2.18410394659430    1.10448789545027
H           0.78716983780244   -0.30051442841124    1.78742406836425
H           1.50136310451190   -2.51794933715782    1.24945871258634
H           0.96735115662262   -1.50178529058408    0.07678556567281
