    26
        -50.46948116  Gyration_radius:  2.54229138007 Dipole_moment: 4.405
 S           0.98028736865160    0.70959032195486    0.10152277152961
O          -0.47875208691714    0.86753736091571   -0.09875084432176
O           1.66006058909915    1.97045356323573    0.13111515439850
O           1.11876457091199    0.01710443984901    1.50905850669096
O           1.49370298379722   -0.26905285210756   -0.84607232702235
H           1.45872445481033   -1.78411545692606   -0.13823464164235
H           1.20250868675857    0.77935984633340    2.15829771631120
O           1.29623212157820    2.23495074724627    2.76826813778169
H           1.75598371053694    2.52542861509337    1.96415589946114
O           1.17341061920194   -2.53637175707466    0.43071670239345
H           1.51502072699205   -2.31948565773876    1.30232203867555
O          -1.61532523274262   -2.10634971031802   -2.54802286924449
H          -1.07716535797848   -2.81247282260953   -2.91047753923041
O          -0.23687786414175    0.12419250045688   -2.83630825046888
H           0.52850029740250   -0.05984884398346   -2.25563172816535
H          -1.16158478203239   -1.26182134465248   -2.80490169093313
H          -0.71618126488573    0.82305382457444   -2.38196770511890
O          -1.07090732512765    2.81532620349828    1.62160809995448
H           0.37268758757750    2.53687718457154    2.64172930879743
H          -0.93212212653372    2.10452010962211    0.96352475042917
H          -0.99163960724704    3.63912975173494    1.13660163753293
N          -1.27929566724649   -1.61233479853148    0.03674170007209
H          -2.03509435021934   -1.80359981744298    0.68544533239847
H          -0.38492827538661   -2.11217083984372    0.30384153025337
H          -1.52981694094135   -1.89606100965825   -0.95264036337023
H          -1.04619282594931   -0.57383955821250    0.01805866283564
