    26
        -50.45004652  Gyration_radius:  2.53779786792 Dipole_moment: 6.012
 S           1.35480694884587    1.90052335300751    1.18859151743477
O           0.44665197066659    0.82406467121371    1.51886560463471
O           1.85194598228943    2.68550036187285    2.25307825974532
O           2.53745473010524    1.30619386968071    0.37942889017209
O           0.64561460448710    2.82834977519950    0.16645650641642
H           0.06173154019604    2.29610227133399   -0.44449788736214
H           2.32890189000380    0.40904049277790   -0.00906857970515
O          -1.00739873885763    1.54169554498985   -1.36286155895693
H          -1.55474716714454    2.18944908872718   -1.80955309129768
O           2.15637270301639   -1.00323395849160   -0.72668281573270
H           2.87718392985553   -1.11638321141478   -1.34833939770164
O          -1.44327773375670   -2.34844394057538   -0.10428274324438
H          -1.56541472563346   -3.29526241338233   -0.18220816003868
O           0.63773173989277   -1.86950810118338    1.44921741630843
H           0.52850392285893   -0.92657507641826    1.66680892848200
H          -0.70172045929903   -2.21703069570716    0.54515899891745
H           1.37357056009057   -1.88198634272423    0.82336732642540
O          -0.08005592357046   -0.96956371462484   -2.02072443178942
H           1.30714491407476   -0.99707981201973   -1.27004971507118
H          -0.66319167579596   -1.49328001002325   -1.43432832138857
H          -0.39439722635339   -0.05392436322394   -1.94879004229998
N          -2.24243034414858    0.41018161022886    0.59557055640888
H          -3.08797778635236    0.72133946609372    1.05435075315580
H          -1.58022762030736    1.11770944468790   -0.61864520049688
H          -1.46149597970090    0.52516217072233    1.23891270731042
H          -2.32528004546720   -0.58304050074269    0.40022446965704
