    26
        -50.45840266  Gyration_radius:  2.43819665855 Dipole_moment: 7.440
 S          -1.44520694361264   -0.11415175263009    1.41891765841879
O          -1.51489956491167   -1.58120019765591    1.55013521389461
O          -2.32540619553457    0.61500151977764    2.26586223324795
O           0.01910736783121    0.28507730939791    1.84986723853642
O          -1.55814268946094    0.23747728787732   -0.00799218461414
H          -1.07095935713815   -0.37096924592298   -1.34105475284878
H           0.69759006862985   -0.22699784159794    1.36276590311286
O           1.96314329559846   -1.03845243978699    0.53860933923463
H           2.76825064368788   -0.81395148384541    1.00692739626432
O           1.26219175799066    2.70103325232899   -0.21271521306071
H           1.31827554497610    3.55147322220191   -0.65057648677074
O          -0.70743490672364   -0.84484353061730   -2.14541531691786
H          -1.37880699543315   -0.76246008012440   -2.82377461780344
O           1.73854944194533    0.43319456741142   -1.54526149017241
H           1.56857889483775    1.30194431231776   -1.11377300283019
H           1.95465884933470   -0.46480771871020   -0.29730599897320
H           0.89899033056546    0.13935398389101   -1.92771601593473
O          -1.22398147374668    2.73943013240437    0.78269633559185
H           0.39368867986556    2.69794777929478    0.25084623362344
H          -1.48154864310830    1.90277685795460    0.35658106945664
H          -1.46057099866400    2.59611361715406    1.70417380558441
N          -0.07240863476568   -2.63242623788070   -0.22590553878969
H           0.87142262232797   -2.32700573013712    0.05706785112412
H          -0.76268996502744   -2.22403731191796    0.56258388495365
H          -0.31359383110096   -2.15823536414632   -1.11967349225029
H          -0.13879730837185   -3.64128493705074   -0.29587006208256
