    26
        -50.46837086  Gyration_radius:  2.48016517914 Dipole_moment: 2.827
 S          -1.77803573625240   -0.83704492551303   -1.09530476940116
O          -1.68069688029579   -0.68845354946831    0.35768445245486
O          -0.57776260242867   -1.42051976503465   -1.64870712628099
O          -2.95786995023236   -1.87877835330088   -1.31378397669120
O          -2.19140685435893    0.37708635044667   -1.76791017489332
H          -0.94331214234058    1.36548926737487   -1.59820191718932
H          -3.18036843801824   -1.71905829991080   -2.22451448723364
O           1.92060616545884   -1.70281113083801   -0.79057193761754
H           1.10080719183638   -1.71497999119650   -1.32329187487011
O          -0.19652044662693    1.98839619612900   -1.41077654218283
H          -0.15969036557507    2.59074746519483   -2.15577424814445
O           1.25118011067247    0.97866378893997    2.24539623167809
H           1.44239671101178    1.45211189674255    3.05515156387195
O           2.18093507023631    0.93015608711790   -0.45603106724651
H           2.05790657722546    1.04704416765372    0.49570455424389
H           2.21361044200853   -0.76219396524180   -0.81051547759708
H           1.38566085674729    1.30412921170151   -0.87232804661685
O          -0.99449043903143    1.77019865582244    1.20894484915185
H          -1.42512417154576    0.92326829797634    0.98298829267522
H           0.38268646225822    1.34495600906484    1.90042795327415
H          -0.74419300994931    2.14561523294020    0.34963678599856
N           0.58151478979977   -1.51808368606515    1.40404258095633
H           0.93269128912348   -0.67509544231006    1.89776302154709
H           0.52694822648136   -2.31889201929829    2.02232308783754
H          -0.37092275179499   -1.27780614289737    1.00914619649284
H           1.22344988558363   -1.70414535601509    0.53850205576924
