    26
        -50.46836892  Gyration_radius:  2.48004454029 Dipole_moment: 2.828
 S          -2.05557953171347   -0.54987711527778   -0.73177351543759
O          -1.75827690962244    0.02835040343188    0.57944674015856
O          -1.14822902509151   -1.62716917285964   -1.05487259967110
O          -3.50313675858316   -1.18458302726286   -0.56974518265145
O          -2.16805307333571    0.44122523996034   -1.78148456690065
H          -0.67676542284223    0.99009975598492   -1.96942651391100
H          -3.74660020193918   -1.32774275628211   -1.47792446317140
O           1.23790154167523   -2.37412989224933   -0.15765249867483
H           0.39611471592738   -2.30336042466375   -0.65016878978790
O           0.23507182038606    1.37470508558516   -2.01208645937862
H           0.36137780788455    1.65862540060053   -2.91906611450801
O           1.72344528877875    1.22158653212597    1.76208593836670
H           2.13320774606778    1.85001947307883    2.35671846879552
O           2.29080888126512    0.00132679772153   -0.75852244403666
H           1.59849223806856    0.44668350067753   -1.27615212229019
H           2.31435027188452    0.45663861877789    0.09396056897292
H           1.78862602390387   -1.63394198489166   -0.50373674141195
O          -0.29521662003492    2.28680592785336    0.52380379556390
H          -0.97670960479235    1.59230643986170    0.60683552854483
H           0.96646033866237    1.70563011692070    1.31469526230953
H          -0.04377805175890    2.26144249081431   -0.41334943767863
N           0.26559923702224   -1.07124806079675    1.84230366351424
H           0.04968397255859   -1.56472001804375    2.70043693090796
H           0.72464706475347   -1.72169128047698    1.09256609098452
H          -0.61341378994077   -0.69002673928899    1.39200720600099
H           0.89997204081372   -0.26695531129081    2.01110125536949
