    26
        -50.46837077  Gyration_radius:  2.48040470032 Dipole_moment: 2.830
 S          -1.54825033070412   -0.57094594958061   -1.52981182197656
O          -1.69726092908988   -0.73271104035607   -0.08264306068979
O          -0.25829189887437   -1.03692380243990   -1.98399487736610
O          -2.64842942333839   -1.53129473899237   -2.15615072819486
O          -1.87499486402259    0.76184848277752   -1.99288632138149
H          -0.70189888335748    1.68200642799344   -1.40997841223974
H          -2.71657305219259   -1.18381710261504   -3.03879663779916
O           2.07061023552881   -1.51410052840645   -0.79769012610723
H           1.35116539245424   -1.40670038745095   -1.45100325993507
O          -0.01472408915897    2.24511219587276   -0.97209062882884
H           0.12638921360172    2.99321933572102   -1.55485757763722
O           0.83544351175859    0.46959759200762    2.57838091435880
H           0.87743056634943    0.75884717462314    3.48997637254602
O           2.19969820991588    0.98631620335437    0.12130818693988
H           2.33684960727377   -0.59299885798478   -0.57049465781083
H           1.47469135931925    1.44763419697770   -0.33379709807993
H           1.91811304520444    0.90004611248569    1.04209903992234
O          -1.22851443329228    1.48300554529249    1.37105765425409
H          -1.59305748378999    0.70720154787916    0.90317192478457
H           0.02644055707646    0.90845874103639    2.17809277295208
H          -0.84935644065982    2.02950858622136    0.66418548945579
N           0.38125529852593   -1.78581370266174    1.13017540913573
H           1.16263679936886   -1.79040175985525    0.36529833028979
H          -0.49845838664491   -1.45834254057101    0.64047992495219
H           0.24588151182711   -2.69884598127713    1.54800888394009
H           0.62320489693051   -1.06990576007225    1.84196031449074
