    26
        -50.46147062  Gyration_radius:  2.59163724422 Dipole_moment: 4.224
 S           0.52055542920922    0.19493156377702    0.49834561163987
O           1.24028833980868   -0.70626897043935    1.36559237283706
O           0.34553454527543   -0.30533447385991   -0.85798702542149
O          -0.92574692351983    0.41083656230415    1.07781318581697
O           1.08737591883439    1.55430108459349    0.46350586101452
O          -1.32649495098017   -3.57920833531684    1.15535675950468
H          -0.55070803215350   -3.39408546540220    0.57276592804031
H          -1.21449066626246   -4.47666271202270    1.47226683745311
O           0.86337965566102   -2.86169420380834   -0.18287151345013
H           1.26219943950408   -2.31142209509202    0.51168916637043
H           0.58478409068546   -2.19747281279961   -0.82994599691997
O           2.03856821925453    2.24711320760338   -1.96705428651211
H           2.77059859877705    1.67939663493360   -2.21247748942054
H           1.82158485668762    2.02059405663020   -1.04062365185093
O          -0.46062921638625    1.48593003111355   -2.59710726784871
H           0.43058859987707    1.87308462861657   -2.71798543777017
H          -0.26823920875688    0.65774254300604   -2.09697435119634
H          -0.94403847971213    2.27446164705073   -1.42587230458698
O          -0.92038273034258   -1.48397597617866    2.76612872179271
H          -1.06048709106937   -0.30911183649597    1.77726916758694
H          -1.20523985536018   -2.27795896139678    2.25584324380665
H           0.04308329396340   -1.44160066636180    2.66783534143268
N          -1.04671442192575    2.68442658189949   -0.40852243610541
H          -1.79246577550166    2.20218614401500    0.09080951350293
H          -1.16554627414781    3.69219902970105   -0.39262179102443
H          -0.12735738141894    2.36759280391059    0.05482185131760
