    26
        -50.46558808  Gyration_radius:  2.55286426703 Dipole_moment: 5.003
 S          -0.53547293741663    0.10400731967512    0.06500599589064
O           0.50372581431806    0.70472126351452    0.92255725273205
O          -1.32732907155282   -0.84407230870698    0.82534932580469
O           0.05851037996282   -0.50495129791451   -1.11631321782544
O          -1.44000299768058    1.28435665562074   -0.36957027802860
H          -1.63056395327292    1.25951776772532   -1.35957556478538
H           0.45361412556795   -2.01200982153163   -0.56966465476536
O           0.59583603232258   -2.80744510406957   -0.00362462392664
H          -0.29248701795533   -3.09224893456852    0.22976006870536
H           1.21958746452173   -2.10910647384959    1.29234843249909
O          -1.78322414127952    1.44953224305087   -2.90537049712051
H          -0.81548658796370    1.35034941755417   -3.13524459443250
H          -2.02824190733811    2.34743670889484   -3.13817244071657
O           0.81388209227231    1.22487512563494   -3.03222636336625
H           1.08624814071173    1.90010125934385   -2.38366865636549
H           0.72817503869211    0.41496872824520   -2.49931766078312
O          -0.94180371968471   -1.54848803175829    3.32074747055235
H          -1.23244052419095   -1.32792838777392    2.40235462196782
H          -1.31908375077025   -0.86968958444576    3.88248120795989
O           1.05332146977404    2.72050582639339   -0.74730732756638
H           0.30822304945270    3.30224541894467   -0.58452825668673
H           0.95581457908497    1.99377825250647   -0.10329152596515
N           1.39802195208388   -1.42047348161146    2.08469175289147
H           0.65320931133634   -1.57327284265858    2.80613274616391
H           1.17914297243830   -0.46519505189367    1.65865866994638
H           2.33882422656420   -1.48151467633175    2.45778812721169
