    26
        -50.45130964  Gyration_radius:  2.43413278541 Dipole_moment: 3.699
 S           1.06695257004751   -0.71585166806971   -0.20026406299903
O           1.49077875196113   -0.99157713142257   -1.55404035404803
O           1.42088886379766   -1.74098429442984    0.75467699325817
O          -0.51264105347761   -0.59795568513879   -0.20975497143973
O           1.46477321202752    0.63197863142747    0.24911549060896
H           0.35185132536342    1.46690400096529    0.48635737609176
H          -0.82134299490248   -1.48570400536919   -0.50812356669585
O           0.81141568960731   -0.37175903094534    2.89729669682564
H           1.02418109838581   -1.02126157439237    2.18897514724619
H           1.43142825588170    0.34636870203360    2.74366382165777
O          -1.45904910176813    1.99296235896437   -1.71553095175093
H          -1.65695630220870    2.84069019701366   -2.11860212270459
H          -0.60907057389151    1.67723695197492   -2.12568310004546
O          -0.52947679955852    2.04329703913039    0.64768629180252
H          -1.06200094353535    1.48708532430419    1.33266645418115
H          -1.01782603871754    2.00088993502050   -0.25886513099610
O          -1.57514631776790    0.63574252080488    2.48516917319858
H          -1.80582694708549    1.09095689871076    3.29752189013375
H          -0.74202877910823    0.12539189520336    2.67511236571646
O           0.96254871726019    1.38083438359589   -2.51766484130350
H           1.15259205567135    0.43717779152541   -2.31169252179222
H           1.56344763186704    1.86640786467869   -1.94610858543547
N          -0.42783380912349   -3.08546350217639   -1.01726432046508
H           0.15380774215060   -3.28955548214299   -0.21113070226360
H           0.20697726540198   -2.78329833133103   -1.74913505394997
H          -0.88244350840232   -3.94051377997555   -1.31438143486520
