    26
        -50.45130971  Gyration_radius:  2.43418963795 Dipole_moment: 3.699
 S           1.21040427191588    0.18594503254974    0.43763253712190
O           1.40898289665196    0.70242759384707    1.77253565362214
O           2.25525519171918    0.53569208063683   -0.49746746481344
O          -0.14478120001980    0.79433460951576   -0.11229096265699
O           0.91318236896068   -1.25915318035914    0.43290312868637
H          -0.38998369774531   -1.53591457211819   -0.03286295442602
H           0.01287254365185    1.76772231012380   -0.12578097294921
O          -2.62710442200828   -0.39598209631175    1.41492890493967
H          -3.32697472325604   -0.86700265673861    1.87174419436553
H          -1.85178551235074   -0.36962368762625    2.03842601690387
O          -1.38314515551949   -1.67585908705501   -0.39219352796993
H          -1.95613173562009   -1.10748689638844    0.24872027240867
H          -1.37481532263186   -1.21908434683761   -1.31602910913906
O          -1.09316231347772   -0.69111367702455   -2.71544549637762
H          -0.09867747132539   -0.70741779737683   -2.68216823877500
H          -1.34944095225181   -1.24734346158197   -3.45387740099986
O          -0.49208743972005   -0.68520578256181    2.91142959059553
H           0.20876560189686   -0.06134372443529    2.61396546396480
H          -0.13436776631458   -1.55114170409634    2.69735217081841
O           1.48557362800712   -1.06773058136941   -2.41385960631723
H           1.85386035765186   -0.38133106234951   -1.81201753364379
H           1.57937369466981   -1.88430516893320   -1.91583966974706
N           1.07897884555402    3.08939122861930    0.17308584544123
H           1.10327609589865    4.09962114038265    0.10302603629963
H           1.83929260530724    2.70664573565726   -0.37947536630568
H           1.27263961045368    2.82525973182866    1.13355849898484
