    26
        -50.45130970  Gyration_radius:  2.43424903114 Dipole_moment: 3.700
 S           0.81354824503097   -0.68103990562932    0.75165674162704
O           0.65356370253584   -0.63871107872715    2.18719255543265
O           2.17263059396375   -0.89687530351571    0.31037115253795
O           0.34234220544096    0.71815495313092    0.17792242389966
O          -0.13941862325031   -1.60477421389661    0.10720251310620
H          -1.05666273573733   -0.93091676212738   -0.72745979019027
H           0.95956025880912    1.36953956034370    0.58675862846295
O          -2.77213643825676    1.07468887218335    0.47027400557970
H          -3.73002711783666    1.06636142651930    0.52208998749859
H          -2.44469261094748    0.50764145280954    1.21984671251704
O          -1.71768609036816   -0.36213169320132   -1.33937593808278
H          -1.08535629706944    0.14278621702941   -1.97753644869181
H          -2.13224782285180    0.31680261816198   -0.68409936752852
O          -0.00878237675276    0.61553095923091   -2.94424060724655
H          -0.16661423824498    0.47562502649524   -3.88008963848207
H           0.71340040040843   -0.01721966618214   -2.68254620623346
O          -1.95958577324817   -0.72580686045903    2.19619321406004
H          -0.99152202297186   -0.62886203572511    2.34574387049297
H          -2.03909026956498   -1.57381248153032    1.75089077929712
O           1.60276276714200   -1.31869419831354   -2.20631169593304
H           1.04639969655668   -2.08925852557316   -2.06366422977502
H           1.96907312377889   -1.12428466289188   -1.31353512654935
N           2.29971502335632    1.67243191630654    1.62869384117752
H           2.85945143665652    2.44429750064822    1.97067105225227
H           2.91151413322620    1.00497627024719    1.17031393197890
H           1.89986081018729    1.18355059475468    2.42303760874542
