    26
        -50.45889907  Gyration_radius:  2.42310942082 Dipole_moment: 4.987
 S          -0.65240439735110    0.35274346356444    0.35332180004662
O          -1.47334671589719    0.77323768682241   -0.81000082585804
O          -1.18790607703169   -0.90837455032254    0.90083250103381
O           0.74174023013281    0.09820519194878   -0.09180062852400
O          -0.64286129847536    1.41130871454510    1.37479460473483
O          -0.71210465176092   -2.51357646971754   -1.07810144842244
H          -1.44438417408785   -3.13344114263735   -1.06966993513442
H          -0.84020485035199   -1.93122527656664   -0.28106472101284
O           1.35153925893589    0.62776745276585   -2.56144117067446
H           1.07712396819651    1.56168228063676   -2.54537675955376
H           1.32886112935720    0.37883169405503   -1.60409356399223
O          -0.08511361889631   -1.66765091083136    3.13580498968957
H          -0.54125075777598   -1.47895586002400    2.27352038923326
H          -0.76903732580170   -1.60615117692751    3.80473397397508
O           0.07508616865256    2.82508389148190   -1.53182867438747
H           0.25074089393256    3.35061037349769   -0.75041703612259
H          -0.60125381918189    2.17579291927376   -1.25838523355473
O          -0.82616947554193   -0.58646161790151   -2.75365183512204
H          -0.70397037480351   -1.46079321444831   -2.24500582075215
H          -1.23002767883781    0.03412857751311   -1.97364811289514
H           0.13132601592039   -0.14058540006155   -2.85485443449273
N           1.40835200944813    0.37361589586545    2.36192022626728
H           2.20565864239917    0.81991212509572    2.79982568976744
H           1.04286225059423   -0.46179522153733    2.87893197799980
H           0.53822640972073    1.01191660229157    2.16710088089578
H           1.55851822850501    0.09417396161948    1.35855316685596
