    26
        -50.44909977  Gyration_radius:  2.47714075889 Dipole_moment: 2.203
 S          -1.15359061295019   -0.00863196828528    1.37532212652101
O           0.20999799967369   -0.29473127119264    0.98790123820776
O          -1.81957347986312   -1.03005653967022    2.10222954025781
O          -1.97346039552750    0.32562718396521    0.11636384294371
O          -1.15555229115627    1.29395245081762    2.19648558839030
H          -0.49430681294776    1.93781242748892    1.78071349088105
H          -1.41065186360809    0.61146443862683   -0.68548363195826
O           2.55637032309546    1.06939362595569    1.49449226034538
H           2.85160084653273    0.84119801638821    0.59926620441855
H           1.90296250135345    0.38663099459771    1.70523790652339
O           1.96031935320220    0.07639317635799   -1.04596112536846
H           1.31706149941686   -0.16095248716737   -0.35379921931880
H           1.55297739509680    0.80652963458597   -1.52103798510609
O          -0.69194461737027    0.88321129932187   -1.99952014030235
H          -1.35862683644271    1.13746043471376   -2.64005466580937
H          -0.42323819006946   -0.06628800659270   -2.22637861735956
O           0.05490794351707   -1.55833345149817   -2.34428290191987
H           0.96996537461417   -1.43678149168173   -2.05561008182484
H          -0.40594359396091   -2.03714259499989   -1.60775770737482
O           0.62796739507817    2.83457685684754    1.19991168959547
H           1.42923257320577    2.24778391532061    1.28559030538273
H           0.77325717381738    3.57835678572862    1.78857552490058
N          -1.19910373890195   -2.74195188574255   -0.25881951692755
H          -2.12645545750788   -3.06942562271434   -0.50322397665089
H          -1.30859283450427   -2.08737106106047    0.50995439067970
H          -0.68557966383554   -3.53872486010663    0.09988549087063
