    26
        -50.45912922  Gyration_radius:  2.50125590498 Dipole_moment: 6.694
 S          -0.19638881425005    0.38038362003478    1.16330081277703
O           0.32046245160861   -0.59747102056010    0.04078133666423
O           0.27937184274761   -0.23653568156436    2.39457201752355
O           0.49067951308559    1.65911777929507    0.91369792530190
O          -1.62828856934058    0.47896815108218    1.04257457090213
O          -2.25204600585021   -1.99129730275220    0.29748797684084
H          -1.37457640466290   -2.36255980510451    0.41632757259302
H          -2.19342172033823   -1.08572369417164    0.66380523005233
O           3.00533800587207   -0.81854113227510   -0.16146756334513
H           2.03202672403841   -0.91697604482335   -0.13234330149422
H           3.21283141977566   -0.51658829310503   -1.04802337999237
O          -2.58768587642905   -1.33656894188599   -2.28469697228829
H          -2.66034428302651   -2.14921011108128   -2.78660256644296
H          -2.58742013918687   -1.59416135624202   -1.33432405031286
O          -1.31827241784240    2.40490977370994   -0.92347093405772
H          -0.59516339980398    2.37208286927681   -0.27165024480723
H          -2.06649962880461    2.01809806611570   -0.45475919659294
O          -0.44688231520052    0.23980281621395   -2.17305962087534
H          -1.24813577938607   -0.30611788912653   -2.35384221441575
H          -0.78712685385593    1.13158300794483   -1.91300175874881
H           0.00546350461954   -0.25505167721878   -0.91412358372573
N           2.58394206350726    0.70701563431462    1.98805075864638
H           3.04712935688086    0.13039128518034    1.25183681114024
H           1.77592215664499    0.13075550708333    2.40760866049865
H           3.22558317106964    1.09585558393661    2.66976630471262
H           1.96350197812350    1.41783884572368    1.50155540944574
