    26
        -50.45006069  Gyration_radius:  2.51452286741 Dipole_moment: 1.780
 S          -1.29281369725468   -0.67957867478661    0.44267868148339
O          -2.54762537875373   -1.26352719339904    0.07848661266453
O          -0.91058181687772    0.43341739377406   -0.40612534027152
O          -0.16864164488384   -1.74272460115485    0.37649962017668
O          -1.29639895793528   -0.26604382700350    1.89042659104921
H          -0.31601891373673   -0.12479741310888    2.28784090010116
H          -0.09732697611729   -2.05227536941803   -0.57886135772487
O          -2.23386540836930   -0.82942579808818   -2.52807664350414
H          -2.62909214158264   -1.04853005393085   -1.66280908308005
H          -1.88230390838755    0.05839551571897   -2.40986728407582
O          -0.31760493354504    2.80510553525694    0.71312854764334
H          -0.53597995265011    3.48110091035646    0.06996635624209
H          -0.59625992070785    1.95378761044625    0.32553575887416
O           0.94503144585211    0.10695219173166    2.87801704681952
H           0.78397502891870    0.56043391293984    3.70900954219236
H           1.47394550922190    0.76298756231325    2.29573603802588
O          -0.17788786177207   -2.40697695455304   -2.09972923812302
H          -0.92221589628946   -1.82942681150175   -2.41802718720536
H          -0.47121839590515   -3.31278679256635   -2.22133464741922
O           2.12104221094585    1.79942148401599    1.37079823619833
H           1.34383908371160    2.35759330918896    1.18170840299100
H           2.26167198671309    1.27004019925582    0.55069043906738
N           1.98050344878287    0.18166574374211   -0.79379945428157
H           2.34582693336037    0.26978642533014   -1.73354556413499
H           0.96907685361620    0.27673885820666   -0.84075213069562
H           2.17092331364484   -0.76133316276157   -0.47759484299997
