    26
        -50.45984303  Gyration_radius:  2.44012514161 Dipole_moment: 6.714
 S           0.28857958671060    1.68443156421387   -0.55257202793953
O          -0.71064429613933    2.01939148119087   -1.52253096903717
O           1.25790906630289    0.68144171652175   -1.05236877124244
O          -0.41826584777288    0.95924387834180    0.66723151053860
O           0.97810773825592    2.79771450384167    0.07883014679146
H           1.92066875683738    1.97042231858916    0.98017989582725
H          -0.44132633944097   -0.02770989278183    0.53780508161548
O          -2.98384205150332   -1.14034048943894    0.29697958019238
H          -3.26222755521999   -0.37580412019528    0.80361891225033
H          -2.83775674792598   -0.80668865385916   -0.62418253310148
O          -2.19897975766027   -0.16202383866931   -2.03412857910388
H          -1.47111467146010   -0.75451182024942   -2.27198905000540
H          -1.78608892255729    0.71504935677177   -1.91267239991218
O           0.26468103884847   -1.49972685927486   -2.06770315159239
H           0.79527200033709   -1.81848480098674   -2.79857422974474
H           0.66937270350781   -0.64526446466940   -1.77638409773017
O          -0.42683558183111   -1.65336295143573    0.58254279459118
H          -0.15547873241925   -1.87383105365380   -0.32375748415424
H          -1.41757796701827   -1.66934982161916    0.57086289862975
O           0.96890692729732   -0.55966060173770    2.70773889573090
H           0.23613517627068   -0.01843768092284    3.01324011468239
H           0.58112951206585   -1.16048294071239    2.04636486940463
N           2.45810620561516    1.05543176562202    1.16694733669614
H           3.43843768807600    1.19475594885645    1.38717824359431
H           2.29097691702149    0.62977474010108    0.21706209378442
H           1.96185514369392    0.45802272608345    1.88028091941448
