    26
        -50.46335344  Gyration_radius:  2.50851679486 Dipole_moment: 8.124
 S          -0.49307684059626   -0.80729236842477   -0.33279799518922
O          -1.36701432141060    0.07061551825972   -1.08055253325680
O          -0.57733848645468   -0.58929037124149    1.10752423050793
O           0.98124060750023   -0.51882788247235   -0.75109046144506
O          -0.67378978113405   -2.22379173962827   -0.66712725591365
H           0.53304865849924   -2.77156586296054   -0.21381971297257
H           1.16179752941178    0.50760213488302   -0.64973746871706
O          -0.37072363794672    2.07517575560942    1.49581631925332
H          -0.47635019070058    1.10898794232323    1.54737694919663
H          -1.19913796480402    2.39001658653859    1.08403449923211
O          -0.58184938156617    2.19053180215377   -2.47746452934411
H          -0.41369292461681    1.96946219361845   -3.39398826873702
H          -0.92017076122260    1.37311169685782   -2.05251662359137
O          -2.50236632540530    2.40606858125466   -0.16408032731769
H          -2.19558602549408    2.93009035889642   -0.91008009681306
H          -2.33880937154354    1.48305557678344   -0.41804715602708
O           0.92822059882551   -2.07338720567082    2.60510521787584
H           0.36093095928237   -1.41394389646156    2.12481113174744
H           0.35597472587171   -2.47928704186442    3.25859652637049
O           1.28988167283327    1.94923397301698   -0.51499151223751
H           0.76567687180275    2.13061774766702    0.31521827985441
H           0.73954412782292    2.28092820758377   -1.24968879416683
N           1.54184201015916   -2.98968316651490    0.22509763796706
H           1.42946224470417   -2.78360277110706    1.25844602307294
H           2.15130525043058   -2.28332470063130   -0.18665449908991
H           1.87098074574819   -3.93150105846773    0.04061043973284
