    26
        -50.46058512  Gyration_radius:  2.47506257396 Dipole_moment: 3.441
 S           0.42098939882667    0.77993331662993   -1.05625584432374
O           0.95196638802357    0.48070604215626    0.28414876397635
O           0.61274649296093    2.15020054227650   -1.43761304103360
O          -1.14001939121614    0.51785799033886   -0.93484836832921
O           0.88159015419196   -0.19514766122162   -2.02962923295420
H           0.77514009918342   -1.62578751977131   -1.71640353688587
H          -1.35091869705239    1.10304601876140   -0.16091064248048
O           0.66019958734739   -2.56356212461657   -1.28811287502412
H          -0.31057603708250   -2.55558424733091   -0.95329902668752
H           1.29254944532732   -2.46887815765934   -0.38484785790781
O          -1.11177070033798    2.01880531616995    1.16128563756036
H          -1.11495510558134    2.93196440092272    0.80203212217241
H          -0.17565175284808    1.77559386972038    1.20588419107620
O          -0.66069331517143    4.18331905479928   -0.31996329689214
H          -1.20609175748446    4.59253353216848   -0.99335976463612
H          -0.08070325562516    3.54679186391989   -0.79181326136523
O          -1.66383048506361   -2.14374071457108   -0.34162377928889
H          -1.42305303034960   -1.87146119644776    0.57270946766986
H          -1.83893763933944   -1.30970271140357   -0.80112841523797
O          -0.68723638503944   -0.93448531224017    1.82997294054935
H          -0.05298195775852   -0.40817255373636    1.29585262617504
H          -1.28477545048408   -0.29086545541182    2.21841248673830
N           2.01965344896376   -2.05391729721953    0.75922268691134
H           3.00426808374384   -2.28096761686854    0.79067822026895
H           1.57819217960365   -2.33926465894791    1.62496268894208
H           1.90489969225604   -1.03921472042589    0.66464713102619
