    26
        -50.45711293  Gyration_radius:  2.43194535881 Dipole_moment: 6.995
 S           0.13292953809918    1.21194151073945    0.83897213662482
O          -0.71086281110013    0.83113145037268    1.96832986084339
O          -0.64380558245339    1.45887983574845   -0.36698967687263
O           1.15068308595779    0.17340061741546    0.60966989367011
O           0.88500727833829    2.50991394419124    1.22082891542377
H           1.36547982654066    2.73658079635267    0.37506347212272
H           0.79701301411978   -0.98545297370364    1.37111682267380
O          -1.52421660176375   -2.39780638932507    0.10618593715971
H          -2.15469950975877   -3.08533390361380   -0.11339030992184
H          -2.05255510110679   -1.55783358565773    0.21607324458537
O           2.42383897516753    0.29106944317369   -2.27512728783281
H           1.60792970037071   -0.18586275564482   -2.02649848582137
H           2.41655671346719    0.33950514185220   -3.23330064940872
O          -0.10642930284971   -0.70601945094292   -1.88041931027930
H          -0.33689518973643    0.10269318022493   -1.38658213154556
H          -0.38055122081315   -1.44062476057362   -1.32114099127771
O          -2.73457817188911   -0.11209118405850    0.51911994300129
H          -2.15267088915466    0.28781037512233    1.19697749816606
H          -2.59477765220848    0.45542557135029   -0.24748459610618
O           1.66119786754900    2.67415955429544   -1.23284171630427
H           0.72746585021407    2.48549468470111   -1.39471797787646
H           2.13041300876742    1.85659066144548   -1.51232535178796
N           0.18317128213074   -1.64089942945022    2.02395524155868
H          -0.44400083267101   -2.18028162366287    1.39050245869819
H          -0.36222572730696   -0.89921633032134    2.49507193255571
H           0.71658247209451   -2.22317438004303    2.65895112794358
