    26
        -50.45543863  Gyration_radius:  2.47507889414 Dipole_moment: 1.154
 S          -0.51511055011839   -1.19326336427472    1.01436299402278
O           0.61168378945546   -0.32208850194652    1.27443811859121
O          -0.13299504599531   -2.53176690810549    0.67411061657179
O          -1.36744196334877   -0.58009069192511   -0.11259369398435
O          -1.46383697110622   -1.19905163894659    2.19498415437475
H          -1.91490392351818   -0.26243813193731    2.25222754789030
H          -0.88113923803963   -0.64490686118466   -1.01001925435177
O           0.00201879809532   -0.74355009275506   -2.23823453525404
H           0.82680347015374   -0.31261962488879   -1.89525308264000
H           0.25485953250516   -1.67114975289066   -2.33198309282322
O          -2.42942327807758    1.10812686377939    2.34086516187124
H          -1.66051278443342    1.64852322423167    1.96606123731792
H          -2.51206816478924    1.36127674726698    3.26346234907512
O           2.14323449167597    0.01451565128150   -0.90878831823139
H           2.52948845659448   -0.86271489461185   -1.02769765344251
H           1.71751233954003   -0.01317133822621   -0.03004832058155
O          -0.28083996050703    2.21158184332687    1.47850170737312
H           0.22449826263850    1.38288364865786    1.53501898300017
H          -0.26472621685366    2.43280848138626    0.51701176466245
O           1.67768458565403   -2.76579001797770   -1.26346005816627
H           1.05061757214852   -2.74957201870964   -0.51134273487380
H           2.04501646036414   -3.65066225352926   -1.28059017669132
N           0.01980466797695    2.38149799557256   -1.21455507828923
H           0.94257586333710    1.96935589787657   -1.29695781631278
H           0.01684984143591    3.24559768463254   -1.74134272083792
H          -0.63965003471155    1.74666804396096   -1.64817809817949
