    26
        -50.45278020  Gyration_radius:  2.51654705961 Dipole_moment: 1.959
 S          -0.56926922513159   -0.84279191831502   -0.56564392663914
O          -0.82477689769765    0.21655019658878    0.37858229095049
O           0.62869322172679   -0.66644558502512   -1.34056091485729
O          -1.77794543585256   -1.00254185458281   -1.49702392761133
O          -0.48863552487948   -2.18335879238864    0.14786983801038
H          -0.92343556971280   -2.17823452820699    1.09380468974018
H          -1.83853749994266   -0.16956441854693   -2.08278232223433
O          -1.32601536720811   -2.16605494190066    2.50699725646217
H          -0.93192555577700   -2.91913771799535    2.95359053034588
H          -0.81475588782264   -1.35064227349793    2.80974023281625
O          -1.87162072556730    1.18125630237618   -2.78755661037420
H          -1.35771868955392    1.79189210338332   -2.17767789393218
H          -2.76950205760135    1.52000774322799   -2.81082613954493
O           1.94519902934869    1.65968374067641   -1.63439304521429
H           1.55237981436837    0.77105024999543   -1.53823244414080
H           2.18439662041497    1.74283369902851   -2.55933485343109
O           0.12480372678624   -0.07429233752724    2.94208884691240
H           0.96954488415587   -0.29268293563754    2.48177172081933
H          -0.35783861221675    0.44324647665995    2.28431884782370
O          -0.55409993357728    2.52060769080772   -1.00030941899316
H           0.39838922038353    2.45929848361832   -1.20990067149383
H          -0.69747153347316    1.84458754256338   -0.31603859346253
N           2.16141561039172   -0.56864396646343    1.20869760309179
H           1.63503571738429   -0.80624266135965    0.37375306297304
H           2.89893735805542   -1.25513137701398    1.31322831086958
H           2.60475331305462    0.32475107947862    1.02583754113828
