    26
        -50.45278017  Gyration_radius:  2.51657908314 Dipole_moment: 1.960
 S          -0.66680621218388    0.37802442535732    0.87580044631632
O           0.62909123709582    0.22663293244300    1.47959725383980
O          -0.65534242075042    0.34715351099058   -0.56572855776496
O          -1.32044053694355    1.68035163187522    1.35575577123854
O          -1.58326970471250   -0.70479050747419    1.42377026095898
H          -2.26604538717337   -1.06502171832916    0.72516650869325
H          -0.70592262333030    2.45512305538673    1.10488710889209
O           2.97106279441333    0.57934934186499    0.20677624565757
H           2.16605235016069    0.38732913352834    0.72490388557410
H           3.54386363895878    1.08313570201835    0.78793103796205
O           0.24793989513582    3.50758610221983    0.55331554284063
H          -0.24716927521272    4.21987456441189    0.14219469381097
H           0.73225042414193    3.03731270671808   -0.19055486199729
O          -1.04837774957640   -2.06994920290318   -1.81447743066865
H          -0.34834724871981   -2.37648976039952   -1.19061944737299
H          -0.89504392743163   -1.11752862501385   -1.86796552214772
O          -3.09596853535195   -1.75380907058600   -0.27271904234487
H          -2.38912090388796   -1.93231754518970   -0.97009842482664
H          -3.36206821993961   -2.60858215777588    0.07427771595569
O           1.28628115805588    2.05881185955595   -1.32974828155370
H           0.56275827678561    1.40974098739687   -1.29821032221835
H           2.05756670372474    1.58448271014711   -0.96219871252110
N           0.89045587910337   -2.37951472597657    0.06735490485460
H           1.04950850655906   -3.19060377254466    0.65294341180966
H           0.67819093570250   -1.59591213927903    0.67684390221070
H           1.76890095538806   -2.16038943846780   -0.38919809717631
