    26
        -50.47254423  Gyration_radius:  2.47235743516 Dipole_moment: 2.246
 S          -0.62980121266082   -0.51213476421588    1.15550799022393
O          -0.76858342441308   -1.57584271916855    0.17283007931181
O          -0.26323511008147    0.74667836103931    0.50067373434157
O           0.27680059934505   -0.83110719796215    2.23804603283765
O          -2.06875618892965   -0.29763686563034    1.74692393069909
H          -1.93148991180841    0.11397053951787    2.62576606334123
H           2.51010975120652   -0.44347663238290    1.22286127984460
O           1.33959590914084   -1.69723116402131   -1.45595274523088
H           0.66989164872958   -0.63121807803240   -2.37881788980772
H           0.57195938842727   -1.89866622779150   -0.88209640186088
O          -2.16306028301932   -0.07291856522516   -1.45567026800737
H          -1.79008556005396   -0.77187922171349   -0.87283685766707
H          -2.26731675415492    0.68404039769687   -0.87279524061495
O           2.30024108749437    0.01925850871224    0.40812686803893
H           1.93279028942449   -1.17628994220819   -0.87850848902682
H           1.37848991830919    0.31967108118883    0.53592589264814
O          -1.05931204604423    0.46192736486781    4.06795978382031
H          -0.34447031860335    0.02316263502216    3.55844613291300
H          -1.24987529813354   -0.11122203213327    4.81399399491504
O           1.10660656686003    2.18919665320228   -1.30796201998693
H           1.98650045426065    1.95734865644334   -0.99435350269864
H           0.50948375484727    1.90025619111575   -0.59269960000323
N           0.12590749320320    0.20128037171123   -2.78489774023082
H          -0.85518247130005    0.12520040870684   -2.39360593401598
H           0.12780834424608    0.20409702669158   -3.79828728870327
H           0.55498340371537    1.07353520455566   -2.37857780509897
