    26
        -50.46713676  Gyration_radius:  2.40153075432 Dipole_moment: 8.992
 S          -0.01658137912904    1.49273684841087    0.98031182967627
O          -0.74208557548325    0.25695958101424    1.31118617050622
O          -0.89324721974346    2.42372739399541    0.28237291579911
O           1.16864658863838    1.19776908457924    0.18277014544779
O           0.43173243143993    2.13803172025684    2.31025961551659
H           0.80141852341633    1.36486298474432    2.81913921005763
H           1.27025584685320    0.70196792716690   -1.43371484225999
O          -1.99019704586484   -1.11266600625196   -0.42762350808935
H          -2.71818112305860   -1.53899813144623    0.02748133236622
H          -1.50943441465932   -0.58011124025055    0.27910665619571
O           1.05826488417406   -0.20128087778616    3.23944404564258
H           1.70542306724842   -0.60793199922061    2.62831453465088
H           0.20207713355349   -0.39589168115761    2.83110643215313
O           0.99105913266387    0.25865058748286   -2.26568271408302
H          -0.44759526453195    0.79398710617923   -2.20372715556426
H           0.97004555388437   -0.68520967178577   -2.03123325335945
O           2.22035548989469   -1.12088169565055    0.96644252450794
H           1.73453054376273   -1.71183669736006    0.37993659753841
H           1.98918729440561   -0.22469144923887    0.65527865038094
O           0.43594657188771   -2.20813298365945   -1.12987804375258
H          -0.45164918694956   -1.91191408498850   -0.85328014518260
H           0.34692417742839   -3.09915162074127   -1.47096556112049
N          -1.42856646073820    1.12098238364025   -1.88506334368365
H          -1.93872676233424    1.60079303600103   -2.61838494803082
H          -1.26002889864826    1.76101245164914   -1.03608734485134
H          -1.92957390815291    0.28721703443199   -1.53750980046535
