    26
        -50.44950173  Gyration_radius:  2.74224503237 Dipole_moment: 8.600
 S           2.26856359118288   -0.25928477429080   -0.20931612580446
O           1.68137008134442   -1.54525210871017   -0.51328282980199
O           2.01510896233327    0.14658324371399    1.16852089441046
O           1.81366087478075    0.78622741429747   -1.13921594830428
O           3.81279769358874   -0.39682375930490   -0.39262808148745
H           4.11351328263539    0.53102996583669   -0.35754202084585
H           0.25567387576725    1.11629204271677   -0.92592053887291
O          -0.60788230931655   -2.13555624041607    0.49862181207429
H           0.31108977019023   -2.07448730721980    0.11666082956453
H          -0.61609694236913   -1.45549899063058    1.19852338477170
O           3.93845432596770    2.23884674350264   -0.71037129385637
H           3.02849645789347    1.92593931612058   -0.90230136176645
H           4.31204676923396    2.50864882392471   -1.55227406226294
O          -1.91377243928298   -0.89323158109948   -1.20459478704612
H          -1.36262247807529   -1.53946481623415   -0.53999077783346
H          -2.80977681659536   -0.73699962832932   -0.74574120820709
O          -0.69238474183085    1.20760814841753   -0.64145739950957
H          -0.67265717113898    1.08124099227874    0.32435456927365
H          -1.39192115061011    0.02270203336318   -1.10567696733873
O          -0.41534244602539    0.19827351684547    1.89167927336409
H           0.56287302121367    0.17772382906215    1.64764074326496
H          -0.43587704642072    0.49712799901895    2.80180577909615
N          -4.09423166093291   -0.41041021191289    0.16207511470022
H          -4.07883558764981    0.57182050611671    0.40823456968623
H          -4.04716451796893   -0.95216627757778    1.01637509669993
H          -4.97508340791366   -0.61088886948256   -0.29417866396457
