    26
        -50.47022463  Gyration_radius:  2.39159718402 Dipole_moment: 4.341
 S           0.60173096526588    0.40894633302070    1.23037724048857
O           0.04727872729067   -0.55989455717929    2.15887416114237
O          -0.45505955888346    1.08604924692929    0.46702339762195
O           1.55187505184016   -0.23348537078208    0.31451890214554
O           1.35375800498459    1.48696177421025    2.03439040481086
H           1.47097134886648    2.24628810830209    1.38800565357896
H           1.11185227073815   -1.82303959480632    0.17031758841853
O          -1.65232689917027   -2.07072877085837   -0.99094950833517
H          -1.32515143505516   -1.34941693738293   -1.56642992377204
H          -2.18977675441361   -1.60785922923988   -0.30829225825862
O          -0.77691969210044    0.29328861559667   -2.01691383865119
H          -0.62502036481099    0.61200739092246   -1.09507967131154
H          -1.52288101391380    0.79615071787241   -2.34996938060227
O           1.30755595331560    3.21817092927123    0.12866652550673
H           0.34994676532487    3.13874517564622    0.06737135504502
H           1.65957823761047    2.70695663465531   -0.63883032949864
O           1.89281964001361    1.41241866331588   -1.75018401137884
H           1.95183810748395    0.74868233414683   -1.03616082555317
H           1.12464845537910    1.14072831498357   -2.26669260935463
O          -2.54145629365093   -0.50751307912862    0.98842329588830
H          -1.87897142445372    0.19016698343559    0.81683805768060
H          -2.33866011013216   -0.80831286760677    1.87756759098247
N           0.40777625062565   -2.52612092478033    0.50674018806970
H           0.78884666564842   -3.45715620470353    0.63343734428977
H          -0.44553777697461   -2.48605586743276   -0.16587325648961
H           0.13128488914289   -2.05597780848345    1.40282389757817
