    26
        -50.46049121  Gyration_radius:  2.4327952256 Dipole_moment: 4.033
 S          -0.62346015529959    0.77498599857216   -0.00021656075019
O          -1.22536362704090    0.75746104535935    1.30791797770286
O          -1.28773476138255   -0.10516321755503   -0.95539703184583
O           0.84813141254054    0.23940734768705    0.11434386105727
O          -0.45062715988244    2.12205750354132   -0.55249099228295
H           0.76317220946202    2.06112351631539   -1.36308995585121
H           0.85268825298795   -0.67612895655737    0.55842307224453
O           0.96064532428848    2.72189340404771    1.70590103127389
H           0.48561792839092    2.22247380665948    2.37305040155441
H           0.39409785904781    2.68378751872608    0.92448044682660
O          -1.47811204785608   -2.66463759161117   -0.18838711432787
H          -1.55033293412881   -1.77161543681608   -0.57754337775508
H          -1.95823454371468   -2.61270331167052    0.64800168720294
O           0.60043118232319   -0.48345502461624   -2.71362551912674
H          -0.21180051996347   -0.35497242200088   -2.16097069981622
H           0.96004361350502   -1.33108252583092   -2.44088299158479
O          -1.68624607000000   -1.57971150315312    2.44250595402963
H          -2.25211616570249   -1.44532333150737    3.20364889775852
H          -1.56982848713039   -0.69275028666921    2.03474527436237
O           0.72529758144702   -2.09033606737215    1.13419201286328
H           0.03692558784239   -2.49079646470918    0.54433292919430
H           0.25916872909825   -1.98776301431883    1.97497777930564
N           1.67245863170343    1.77261456400651   -1.89982826359383
H           2.38936793444427    1.63096728728395   -1.19105012752962
H           1.95076613360905    2.46282026571826   -2.59048741900119
H           1.39504409142979    0.83684691644288   -2.33255125194618
