    26
        -50.45882066  Gyration_radius:  2.54865026038 Dipole_moment: 5.497
 S           0.83166959631840    0.66320219508189    0.03692256828268
O          -0.14746051521021    1.37509190184814    0.86061331385534
O           1.32222116374729    1.45627184887960   -1.05989781369786
O           0.09356532343822   -0.59118124840790   -0.54137435825055
O           1.89340221845631    0.08931797368138    0.86622184190245
H           1.46157990085979   -0.73878861909732    1.88829275785295
H          -0.55918125106410   -0.25509688208910   -1.27236051592163
O           0.97943152119187   -1.35786545810642    2.62651671491121
H           0.50286454454125   -2.10704881488928    2.04660370377081
H           0.22343464050501   -0.75918059654627    2.95959237002980
O          -1.40746350931109    0.31104709879878   -2.33884287848341
H          -1.57562710109344    1.21742035134197   -1.98495210341749
H          -0.74340736049793    0.44230494081771   -3.04449524023441
O           0.89047036574926    0.89062776935308   -3.61633623961946
H           1.61019105678106    0.34666616445843   -3.93795264649502
H           1.14530760952173    1.17310503279558   -2.71234079315759
O          -0.91494851294297    0.27997296705560    3.05858399472532
H          -0.85206879447358    0.95843587484160    3.73333833212336
H          -0.72084527613553    0.73775770144560    2.19437384240099
O          -1.23456375155856    2.68912443969444   -1.17484402361990
H          -0.44435519255660    3.02905269698779   -1.60439421453811
H          -0.91781789947479    2.31662587120698   -0.32938012340918
N          -0.23275826769280   -2.94390961185538    1.04635291304459
H          -0.22446133225356   -2.27712942571996    0.27353590790178
H          -1.19529597520590   -3.14766524635488    1.28285482684828
H           0.21611678833216   -3.79815890516114    0.74336787322153
