    26
        -50.45251196  Gyration_radius:  2.42092148872 Dipole_moment: 4.244
 S          -1.36682969543496    1.05830877835645    0.18601458138875
O          -0.71733885361695    0.33940410477681    1.25953800607798
O          -2.55071708624419    0.44171484344293   -0.31617347724736
O          -0.34884578895982    1.25463451043649   -0.97304209790335
O          -1.61077120660279    2.49476521969861    0.62046101242059
H          -0.76148716753386    2.72674449627374    1.16273960019112
H          -0.14930775168485    0.39569551145850   -1.47613660564594
O           2.18354476960953   -0.75016120584582   -0.28079934154731
H           1.68433659878535   -1.28994447150600    0.35477651343463
H           1.73960842142837   -0.87943958672407   -1.12612408010145
O           0.11463845757306   -0.90818810678309   -2.25240415632550
H          -0.51618885294509   -1.53138362598889   -1.73659878182688
H          -0.24080332609413   -0.82379157557449   -3.13905341489575
O           0.52634953600227    2.66609074288213    1.92867925015870
H           1.25409352452998    2.51392700321931    1.26642407442217
H           0.37140249717875    1.80044923018681    2.32465354057350
O           0.42546370196126   -2.03705902391495    1.45178884878837
H          -0.03829418213050   -1.17403653382514    1.43666722385461
H           0.71595145995969   -2.17399484366044    2.35503109934750
O           2.20017054911486    1.94823570401243    0.02689947375539
H           2.32777753869469    0.97538354780465    0.02338703869165
H           1.63105714702624    2.12412569460632   -0.72786158492928
N          -1.55292739759761   -2.22718507500898   -0.79152122794127
H          -2.12887647929151   -1.43173634711193   -0.52076515858147
H          -1.03242983227762   -2.52975751931561    0.02535840714630
H          -2.15957661143292   -2.98280146189064   -1.08193876330510
