    26
        -50.44772133  Gyration_radius:  2.54186971928 Dipole_moment: 1.973
 S          -0.54701581609407   -1.25319597132063    0.26688490201533
O          -0.21395390505826   -0.21979383048880    1.22285883921087
O          -0.04174480224892   -1.06366726274958   -1.05180339849893
O          -2.06889078360886   -1.42148613233687    0.23895655055619
O          -0.05271697490652   -2.60838043690587    0.81973563724149
H          -0.42456952182467   -2.64810300764551    1.73753460985336
H          -2.42645319159034   -0.82167412410210   -0.56576906354861
O           2.06932132306180    1.31305433940917    0.57437210074379
H           2.52668559343282    0.67291750685295   -0.01363898066141
H           1.33432689910926    0.81837126277983    0.95982905034550
O          -2.57173346581055    0.12477881300893   -1.62716161601427
H          -1.82922456724388   -0.09116629688029   -2.20237063628632
H          -2.28507426975348    0.94123653499024   -1.11256826795040
O          -1.50320408948971    1.88448381766014   -0.07494421571664
H          -0.75776089971453    2.34705758659252   -0.52838896102831
H          -1.07790039474418    1.28759212361761    0.55494596251281
O          -1.29375161611888   -1.95813676464149    3.00376300721620
H          -2.22484556484919   -1.94088594757374    2.76421984197273
H          -0.93803269051534   -1.08174104279699    2.79289918214466
O           0.73838098177054    2.92016777810613   -1.06639340015175
H           0.93346187479030    3.82492292109122   -0.81748490927775
H           1.31375786256253    2.35045836278183   -0.49534722484253
N           2.86806831207403   -0.64429636416215   -1.15957301308473
H           3.23650834283478   -0.36820212912204   -2.06120906821800
H           1.88606615439226   -0.87732563558777   -1.28578474867129
H           3.35029520946890   -1.48698610061631   -0.87356215984130
