    26
        -50.44643735  Gyration_radius:  2.46331008087 Dipole_moment: 2.230
 S          -0.16936682524892    1.61601700935024   -0.27267774493340
O          -1.05202290976814    2.69380612567033    0.04920193186997
O          -0.39085902275180    1.04408133635868   -1.58204310562694
O          -0.36786522117543    0.48088580075333    0.78696623228082
O           1.28516998615292    1.98327400513728   -0.13407935952624
H           1.76638829653488    1.54082107481032    0.71979473162954
H          -1.33139644494045    0.58325396341003    1.08427608477533
O          -2.75041934013889   -0.11884326989686   -1.41904084782997
H          -3.24494056896021   -0.08136868405289   -2.23969792835312
H          -1.88862408716398    0.32122326513883   -1.59362685469348
O           1.11554989033104   -1.24755332920088   -1.60346417716793
H           0.36542846941208   -1.79727771517544   -1.31372578479191
H           0.73312423012527   -0.37096404195664   -1.75645103743939
O          -2.83735582109610    0.98351847759628    1.08512614121389
H          -3.12987199392877    0.55185330064636    0.26258009145115
H          -2.61319977095713    1.89700163808344    0.84643965412251
O           2.50146658062555    0.92811599383188    1.73044656465173
H           3.40146916821819    1.24886969224233    1.63223915523790
H           2.49987195261079   -0.06667038458897    1.41812675292826
O          -1.11533047465288   -2.11902826300354   -0.24139487063169
H          -1.85158535326107   -1.67468571787692   -0.68440527240153
H          -0.80624530946584   -1.49649353280948    0.42582338452971
N           2.50059850798094   -1.48185198121932    0.82794034177509
H           2.09197440359574   -1.38048401593122   -0.11145320971801
H           1.89161918776989   -2.09512656475027    1.35490632725142
H           3.39642247017317   -1.94237419255978    0.72819280941867
