    26
        -50.45522824  Gyration_radius:  2.49548272284 Dipole_moment: 6.315
 S           0.39114080550834   -0.57018700664114   -1.26769669140791
O          -0.55258990120551   -1.17369595403660   -2.14987361684798
O           0.64391925918262   -1.30723595189580   -0.04386963936609
O          -0.07536008338823    0.84531516740726   -0.89064636870309
O           1.70894951908195   -0.33612765954053   -2.00189665450336
H           2.26343637754851    0.32962339960686   -1.41197861190554
H          -0.10996482503321    1.03046265761840    0.16943481373702
O          -3.57215404030170   -0.96954540981943    0.22395489434728
H          -3.36188982663248   -0.40902199165256   -0.55517765612563
H          -3.88739647911647   -1.80268886722682   -0.12937115982393
O          -1.39045065735528   -1.05224197439549    1.79200303991547
H          -2.25599754721935   -1.02809919056745    1.33083877501126
H          -0.76388214552561   -1.44181273803684    1.16322911813183
O          -0.13383202008431    1.19029235919119    1.56069114789635
H           0.74628724988600    0.88424726164227    1.85084726122587
H          -0.74826513372172    0.43096720046735    1.79808740527602
O           2.16116430046940   -0.25926106537396    1.82629630966205
H           2.25294840438759   -0.84806328237395    2.57773288984212
H           1.66648666689409   -0.76627540438100    1.14050922140964
O          -2.72529142194012    0.38904402988413   -1.93521035653552
H          -2.02194395963425   -0.24012659156300   -2.17938684213561
H          -2.26642218545753    1.19263077028260   -1.67817205861716
N           2.91076361308222    1.31161846824136   -0.47094576046432
H           2.33268298767615    2.14101734536362   -0.42632664700290
H           3.84799814807128    1.57549817678887   -0.74397207616848
H           2.93966288482492    0.88366624099327    0.45089926313770
