    26
        -50.45130302  Gyration_radius:  2.46714992291 Dipole_moment: 0.983
 S          -0.80889505642935    1.26490699690674    0.12073698559706
O          -1.47521568750324    2.38910347203009   -0.46384819393684
O           0.37811404940147    0.86618854183397   -0.60631951533283
O          -1.76748765512142    0.05210636591596    0.20601892658126
O          -0.47425363321933    1.52604707072390    1.57099297636055
H          -0.47824867558024    0.60649234231841    2.10958191250048
H          -1.90037808943876   -0.34796061096427   -0.70152857222060
O           1.32767989634677   -1.96171645366540    1.56550229056499
H           1.97411534623587   -1.22705595820774    1.45528687462243
H           1.00543316739394   -2.14369547121249    0.66357568893967
O          -1.04612993942373    1.53120111280166   -2.95633692322204
H          -1.30281660351202    2.04009269373567   -2.16284045645134
H          -0.08971083817404    1.45098245985708   -2.89839347257229
O           0.47107756027885   -1.81188481816343   -1.02337361937056
H          -0.35674566015544   -1.97750749286253   -1.48215596652279
H           0.54301621963525   -0.84497532593052   -0.95143066601993
O          -0.42748435119466   -0.61000455306162    2.82528539752636
H           0.22060982151793   -1.22508539797065    2.32539512153271
H          -0.03791741715311   -0.45586720474539    3.68921977153099
O          -2.02452321066915   -0.78557324612995   -2.22247601773408
H          -1.65782456848310    0.03665096698951   -2.64763274492878
H          -2.93959220305083   -0.85247085203813   -2.50358374306403
N           2.66000176161853    0.37144667775163    1.13189225280963
H           1.94514617954167    0.66527362150518    0.46865004317015
H           3.54492017482689    0.35810536326238    0.64026934678665
H           2.71710940231591    1.08519969934458    1.84751230284740
