    26
        -50.46847045  Gyration_radius:  2.51387811446 Dipole_moment: 6.099
 S           0.38402458544881    0.54923214876018   -0.51913753884447
O           0.25394861388354    0.44435388305118   -1.94939597829363
O          -0.89838149811160    1.20527223801300    0.06658129494421
O           0.48325890659908   -0.77904836158744    0.12533554559145
O           1.47940081134375    1.40160158557678   -0.07824528677227
O          -1.16028988228102   -1.98223383524381   -1.60648188029564
H          -0.81253709853003   -1.67203141102337   -2.44764940983860
H          -0.51271839511831   -1.68059398214261   -0.94338197881907
O           2.63805320523006   -1.71484502327978    1.37049199595009
H           1.90611057656016   -1.46410057827529    0.76600263051473
H           2.39656626838894   -2.56729328971343    1.73742437191773
O          -0.45994056912821   -0.10056620161029    2.50928997124272
H          -0.23080037130451   -0.51362566844829    1.64873507523052
H          -1.14132575647296    0.54238483486770    2.29366398979611
O          -1.88689171194261    1.25418740026219   -3.30254264726066
H          -1.03082677970776    0.96703279915389   -2.92114354418878
H          -1.81115429167641    2.19868682063673   -3.44386030073498
O          -2.81712499727022    0.04644629298274   -1.08639227445820
H          -1.71863832845975    0.75772895593075   -0.36874805125878
H          -2.77487084117374    0.49925796842535   -1.95300699287448
H          -2.41781521605391   -0.83893273448385   -1.24842856322399
N           2.05047135500639    0.70879435450544    2.30978596867064
H           2.58961048827725    1.33530876077939    2.89620623344274
H           1.88569495594414    1.10615342420276    1.31062723556511
H           2.51931369702932   -0.21244310161940    2.15693010190095
H           1.08686226357860    0.50927270031374    2.67734002210449
