    26
        -50.46870545  Gyration_radius:  2.48873479898 Dipole_moment: 3.870
 S          -0.96316728332289   -0.71134297999915   -0.19942327408956
O          -0.67267957938755   -0.00288144530846   -1.44388177830230
O          -1.61251427020684    0.16064029374999    0.77086986017255
O           0.25488804913905   -1.30206691384471    0.36255524939309
O          -1.96579517059555   -1.84917030790867   -0.48948710917014
H          -1.52958508406962   -2.50131084042124   -1.10249212989358
H           1.48828001415929   -0.30131890769199    0.94939583899059
O           0.90112317293262    1.95230802476849   -0.83990708331562
H           1.25610913305770    2.29722006223216   -1.66111754435016
H           0.28184885436770    1.21607581450437   -1.09631035517462
O           1.98004733834470    0.49875625015249    1.24016439758888
H           0.85677341480570    1.01512393436155    2.21309549220857
H           1.90244522996079    1.11141365366480    0.48938812788007
O          -0.99114665905195    3.05175641475901    0.80446006699742
H          -0.27393535529918    2.88714351253242    0.16480577099425
H          -1.66220897033803    2.39199735872636    0.58947505336137
O           1.26740385912389   -1.75570563210907   -2.04094762599171
H           0.70220823849220   -1.02290883815659   -2.32658711697352
H           1.19336521865529   -1.71065445518019   -1.06902320851360
O          -0.66870236204600   -3.53983375546724   -1.98319897108227
H           0.13118368374450   -2.98826539925779   -2.17606314916650
H          -0.36997952455403   -4.27081818237489   -1.43824574962931
N          -0.12170883015087    1.28406855823184    2.55417951401199
H          -0.36572775587401    2.22668089927457    2.16372134683481
H          -0.24040736943681    1.21415517019542    3.55760491403311
H          -0.77811798143050    0.64893771902665    2.00696945360442
