    26
        -50.46847048  Gyration_radius:  2.5137116057 Dipole_moment: 6.104
 S          -0.37051174282470    0.72541622666278    0.23559999713180
O          -1.74426656962401    1.04967681840483   -0.12273194145525
O          -0.48857253359255   -0.31093142080743    1.38888935508746
O           0.28951598512627    0.00963127191011   -0.87868487325670
O           0.40577307834159    1.85155679961746    0.68585701988703
O           1.45307599902593    2.04343404506569    3.12225357733991
H           0.76944550172096    2.35498209464286    3.71671966228558
H           1.07764725662047    2.10809851500192    2.21908609842520
O          -0.80937965816437   -2.37183824614835   -0.48555984400744
H          -0.23187656269546   -1.59666797539603   -0.65669133670345
H          -0.85917285926238   -2.42754751239330    0.47285444216252
O          -0.62433639125547   -0.10639955415124   -3.37273398308052
H          -0.18312630447123    0.07537468789088   -2.51461356946611
H          -0.02980768143101   -0.68136517804480   -3.85811849223407
O           2.76849614028763    0.44195279256521    0.02515620266452
H           2.73685120760467    1.38116655036897    0.22900674433511
H           1.92949072551233    0.25937886409937   -0.43605993823474
O           1.83672468189086   -0.50217289297753    2.34295801330902
H           0.44409164704247   -0.43368083505997    1.81030425591031
H           2.37423007108002   -0.30933533934436    1.54079861075867
H           1.86056942010583    0.32728580401497    2.86191601361698
N          -2.56489061439168   -0.79569836556711   -1.68160844027122
H          -2.10316818537424   -1.62835409900508   -1.23776815330781
H          -3.55960893950656   -0.91395688226640   -1.83527319492828
H          -2.33856768556986    0.03187631084260   -1.01284846397611
H          -2.03862598619645   -0.58188245996984   -2.55870776194875
