    26
        -50.46357727  Gyration_radius:  2.48399731476 Dipole_moment: 7.132
 S          -1.37365295776497    0.08368828104415   -0.98708286830337
O          -2.53217982574947   -0.23831631050144   -0.20455807241381
O          -0.49354023542068   -1.09209815884195   -1.17932234445906
O          -0.57575575390589    1.17598276483784   -0.42437487593534
O          -1.83056715729196    0.53397662221168   -2.40099640397571
H          -1.01404145574430    0.92847215607035   -2.78561389240915
H           0.55194858764963    0.77425767362976    0.45254482509054
O           0.28490582392142   -2.12992354285654    1.06172647135868
H          -0.08408781886184   -1.81868062502968    0.19365522684782
H           0.29360814784119   -3.08702806212010    1.02445635693180
O          -0.15039470105849    1.40531968994906    3.19872731086737
H          -0.58120706744769    2.21541600234205    2.91896349949939
H          -0.80700343816302    0.68369606775891    3.01133277884029
O           0.51238615286712    1.30374027120944   -3.34743847763178
H           0.68035562702161    0.84610783126579   -4.17431399873966
H           1.12068345251653    0.92482696480997   -2.68045145569537
O          -1.68148056801406   -0.54763592218863    2.31439933839619
H          -1.06832509900904   -1.26753635023549    2.11083885743069
H          -2.13508640791987   -0.36137081903108    1.46743011511888
O           1.91938582512588   -0.25362636355085   -1.60486663799898
H           1.00598168300365   -0.59654090809569   -1.42194390104012
H           2.38608468055899   -0.97094494953038   -2.03739301088381
N           1.26579653130739    0.44829930717823    1.20034705429332
H           1.18698916412179   -0.57572050980766    1.26506268460356
H           0.91762586839505    0.88611630933066    2.09911801436113
H           2.20157094196757    0.72952259011804    0.92975340582701
