    26
        -50.46564937  Gyration_radius:  2.448215669 Dipole_moment: 6.111
 S          -1.08348580804341    0.29802626597825   -0.20364436602013
O          -1.46170885543505   -1.09197901113737   -0.06382795868630
O          -0.17001219019261    0.50652823734168   -1.32657506605622
O          -0.32353812205643    0.74798590747330    1.07893577259138
O          -2.22385548671955    1.21255808159288   -0.26375448246614
H          -1.66074514862263    2.42977650194493    0.16647924803449
H           0.48798706189289    0.11085002796085    1.23836796007712
O          -0.16506381873594   -2.81899117817713    1.60886662203708
H           0.03136648843752   -3.47300433095030    0.93037036124759
H          -0.81830568892059   -2.22582334238637    1.19917071958875
O           1.82487226240091   -1.27477154314256   -1.22215760887124
H           1.16908930764735   -0.58498322605805   -1.43790288976916
H           1.34163374844313   -2.10947897418455   -1.34357549414109
O          -0.23393865847696   -3.09625254550211   -1.34718698900526
H          -0.75509739336096   -2.36931179044008   -0.94615557771429
H          -0.66163339833358   -3.30487694682969   -2.17838249367704
O           1.59826247063930   -0.82665935704895    1.36091140801882
H           1.86538373642382   -1.01569678089933    0.42301739539188
H           1.10894464257735   -1.62902858171534    1.65176777532589
O           1.18472409886572    2.59183529341815   -0.61831755534587
H           1.86965471399810    2.21443639903432   -0.06041742338988
H           0.73174411012303    1.81480259354274   -1.03798954371438
N          -1.06794752494266    3.30722585448703    0.52524983684415
H          -1.01981091570460    3.25306908653066    1.53865737978873
H          -1.47246040206037    4.18645710714189    0.21869916076102
H          -0.09605922984007    3.14730622203788    0.10939380914848
