    26
        -50.45310041  Gyration_radius:  2.47134489597 Dipole_moment: 5.236
 S           1.38298084625085    0.08534864358230    0.25036753481474
O           1.87972595613083   -0.90494925547345    1.15707402169586
O           0.46830228239884    1.03426064508747    0.83307190004127
O           0.70256532551354   -0.60764641257501   -0.94703600604986
O           2.56176902874122    0.81073808318369   -0.39104492877818
H           2.18278966749274    1.43803518481264   -1.10496377829604
H          -0.32317905925395   -0.52111571906421   -0.93399922415814
O          -1.83762697078378   -1.97004212585660    1.23282866917468
H          -1.50193530441297   -1.42480800639601    1.97509535150103
H          -1.10566681920308   -2.58451786881046    1.03147503390233
O          -0.37805769019446   -0.46172532167863    2.92353451794547
H           0.43903348525896   -0.95504909665887    3.03868348801616
H          -0.15922300247535    0.24057189738475    2.28985199681347
O           0.51912772885626   -3.15016685155278    0.54108900615567
H           0.74752671627426   -3.28092030975356   -0.38076347666079
H           1.10127086475507   -2.43609559876419    0.85774044553508
O          -1.81740401170206   -0.55514696069720   -0.89459092180235
H          -1.93182079723836   -1.05852087090136   -0.01667680387911
H          -2.13299191430018   -1.15463373861006   -1.57490166652865
O           1.51571566687650    2.39707139885111   -2.07052005414660
H           0.53453334134426    2.41614739086000   -1.82863881319620
H           1.85628941764002    3.27876060226378   -1.90356250319239
N          -0.95999756813231    2.39650913352796   -1.18845341058351
H          -1.56444849269326    1.67930282612640   -1.57124173720199
H          -1.51715445497292    3.23036169351789   -1.05020511182764
H          -0.66212425218146    2.05823063763585   -0.27421352927423
