    26
        -50.47106196  Gyration_radius:  2.41685722307 Dipole_moment: 5.148
 S          -0.12183993658188   -0.98252748794220   -1.26311104666381
O           0.33915907573272   -1.32393812368806    0.09817343516508
O           1.00295799157561   -0.62595147827120   -2.10921318144600
O          -1.12873710457140    0.06538223384497   -1.20225656734989
O          -0.76158293767712   -2.26262916705230   -1.85470292639645
H          -1.48465813562448   -2.50723168655980   -1.22691093402109
H          -0.79493503626409    1.71820258556990   -0.89654203222031
O          -2.49023762149224   -2.82439666172017    0.05316832686720
H          -2.13106524590891   -3.55344889090590    0.56336075562742
H          -2.45481544093920   -2.03416774794333    0.63306776091103
O          -0.18945692552927    1.67335913137566    1.99163596853374
H          -0.86475053762907    0.97581193036214    2.02111512972683
H           0.66379988603560    1.21880098398473    1.95295950761175
O           2.11249353281444    0.16595561094331    1.25705974621389
H           2.71165988708478   -0.39130072161929    1.75551064553219
H           1.46481014830574   -0.44939064927822    0.81931249954981
O          -1.81733378888836   -0.51555951372298    1.30965964723472
H          -0.94513594136784   -0.87044502446062    1.02199704129414
H          -2.10061737488212   -0.01251493819000    0.53222143018517
O          -0.34432787635539    2.51560813143897   -0.54426282640692
H           1.06303886420234    2.10817553938760   -0.89480732705542
H          -0.37560234166776    2.40904944707142    0.43521464560929
N           1.97877494392126    1.54352944257972   -1.07927785556782
H           2.67670168379220    2.07609750429488   -1.58582478635512
H           1.66376214596690    0.67865657492441   -1.62016840892948
H           2.32793806595337    1.20487296554637   -0.16737867761762
