    26
        -50.46444737  Gyration_radius:  2.49788104458 Dipole_moment: 4.339
 S          -0.24368437848966    0.93322119689523    0.48266079840831
O           0.05239288633991    1.53646266054897   -0.80090580663112
O           0.90981166930241    0.96944501124749    1.38093015966260
O          -0.70118345541017   -0.45769180541544    0.31284133406880
O          -1.39384912631438    1.74205845622226    1.11516313566901
H          -1.55806120159139    1.39770702282395    2.04109793405636
H           0.28912211819533   -1.09081307411324   -0.72089075391815
O           0.10415534533146   -1.06487990593918    2.86912214871042
H           0.62450144123814   -0.35187655280925    2.44795208888124
H          -0.38136847584812   -1.45722234724388    2.13425674884946
O          -1.78045454598612   -1.81761677289682   -1.91763025029140
H          -1.75156088513892   -1.41261201554469   -1.04214360985380
H          -1.68072654356635   -1.09165583916784   -2.54235155433228
O          -0.35370708384263    0.39472094360934   -3.10654244951831
H          -0.30757758197009    0.90603964960345   -2.26076059363329
H          -0.25503499593176    1.03401098337992   -3.81311291428358
O          -1.61925431654004    0.82192727926119    3.52486652008956
H          -1.16787716837827    1.42421261830261    4.12021988535452
H          -1.04241498211053    0.01994914382101    3.44965455905560
O           2.71266627289830    0.53214673933738   -0.47275123182633
H           2.60902233739027    1.32882628976029   -0.99996163771313
H           2.16862180674970    0.70575101691414    0.33114210854093
N           1.03485449361996   -1.24971782971050   -1.46670305558725
H           1.24660180980801   -2.23701869729246   -1.56975794357859
H           1.86014655332217   -0.65905365049312   -1.16057214790956
H           0.62485799776881   -0.85632052188325   -2.33582350032195
