    26
        -50.45056298  Gyration_radius:  2.49972682908 Dipole_moment: 9.010
 S          -0.26634167722079    1.64305784653154   -0.53983002835526
O           0.77671473263752    0.71441346896793   -0.91054609467311
O          -0.99828167028032    2.22543728975971   -1.61243631413048
O           0.31968693561317    2.71051471423782    0.37158504399083
O          -1.29087015757987    0.87628942810951    0.35367163422381
H          -0.82989420562463    0.47214605380524    1.14548231920466
H           1.12948901163544    2.23131602792760    0.90088309249754
O          -0.14522779784922   -0.17574341796747    2.43727956060233
H           0.02546202316311   -1.12486529813742    2.15535428550326
H          -0.84403202192704   -0.22396668998036    3.09306787173668
O          -2.24799890467405   -1.15696865558315   -1.54824035408070
H          -2.34684380138318   -0.43101193626114   -0.92472611168610
H          -1.96338616209765   -0.74830436687752   -2.39006782513298
O           0.22637941176108   -1.95098835524795   -0.89730355077609
H          -0.71789420892201   -1.89240036553006   -1.16426224720462
H           0.54722691132194   -1.03445390975874   -0.94593648315831
O           0.26365913620112   -2.58768027789409    1.61538262534708
H           1.07153071827873   -3.08105130316241    1.76198820605702
H           0.21173495330054   -2.43142659861514    0.62657327986322
O          -0.91724861297155    0.24446662259812   -3.45270503194753
H          -0.00384754718124   -0.02516097377703   -3.33006520425640
H          -1.01364948899293    1.08081176555601   -2.96743088730643
N           2.11227709614498    1.35214927510996    1.48332427660972
H           1.60273428538540    0.77757578103041    2.14707271319495
H           2.93695578448320    1.74664039501440    1.91346624520723
H           2.36166523664498    0.78920348011951    0.67841898876679
