    26
        -50.44828832  Gyration_radius:  2.47112684195 Dipole_moment: 6.021
 S          -0.32154834133565    0.86458069273680    0.54694055156367
O          -0.21285278594265    0.98621346196641   -0.89585847120103
O           0.45838200322141    1.80200883158916    1.28365076457326
O          -0.00648265830639   -0.56119530014855    0.94786162443234
O          -1.80507753202819    1.06257560171792    0.93609272618225
H          -2.35457752984825    0.36842563792890    0.47493048773329
H           0.23749387248701   -1.23814066844304    0.14355118528015
O           0.58434383385856   -1.99737705958207   -0.97798387789102
H           1.32895813890822   -1.42126239900929   -1.33046506669991
H          -0.15482926402099   -1.88433154241748   -1.59733300743770
O          -3.15898687457401   -0.68776475826641   -0.41743764958099
H          -2.63914293388713   -0.85324547915486   -1.22746484087550
H          -4.02189888807919   -0.36948890944930   -0.69177603655641
O          -1.38936125515783   -0.73032181001151   -2.46209035568980
H          -1.34391427670481   -0.48945925977947   -3.38912550508326
H          -0.93805204786408   -0.00901044826646   -1.95941617986603
O          -0.67247453489458    0.95349612259684    3.66683599562266
H          -0.14471825173719    1.34904260718611    2.96307420271078
H          -1.57850926931578    0.97488624424485    3.35386971172848
O           2.22007993115696   -0.11001967974572   -1.65460171469772
H           1.50675618907354    0.54225950116698   -1.62591768952635
H           2.69526881314448    0.01298296492385   -0.79593323961094
N           2.93855629404485    0.30383328287005    0.90318971297257
H           2.21266498253286    0.97944114733828    1.12729055403251
H           3.82066267121881    0.67904798775159    1.23054222954234
H           2.73925969379165   -0.52717676966788    1.44757388846174
