    26
        -50.46947533  Gyration_radius:  2.39144491608 Dipole_moment: 4.886
 S          -0.85151891439394    0.67074731050372    0.42245074862254
O          -1.91319842561666   -0.09127268908567    1.04992362815745
O          -1.28095067002861    1.50617463118140   -0.68519373650343
O           0.13231594319262   -0.40276014409762   -0.22158033453295
O          -0.02044453947033    1.38659049605339    1.37983519235336
H           1.41564505029366    1.39385565272941    0.88091053764497
H          -0.40617956591687   -0.95755088583467   -0.85176284187071
O           2.35773417234276   -1.38219526209766    1.12337338075065
H           1.57661929220761   -1.33002594150056    1.72223890596174
H           2.04770504841039   -1.89394251971290    0.37280783175857
O          -1.40238197812617   -1.78715304028084   -1.79319671831283
H          -1.64047157999338   -2.62325007683797   -1.38677365509004
H          -2.21332947094810   -1.21370905340946   -1.72109383124925
O           1.03731048821253    1.65854528500594   -1.96347437585957
H           0.92192584854638    0.98621118401006   -2.63842215076973
H           0.15769525357465    1.73949298978817   -1.52746266109991
O          -3.36155666785876   -0.14666925882627   -1.19173276912147
H          -2.93813235785539    0.69677181073927   -1.40594161501779
H          -3.16795598659410   -0.24301214509654   -0.24171064921570
O           0.08596778712465   -1.11668059057937    2.59357786300899
H           0.22965956741647   -0.34354885214516    3.14539792663130
H          -0.69273688661791   -0.88472393623888    2.05707828042725
N           2.31498958474603    1.16621728652594    0.34680079279434
H           2.48867859407393    0.14735689748031    0.57601151429696
H           3.08858647103260    1.76561264032548    0.61192647931701
H           2.03402393869829    1.29891821311969   -0.65398776130661
