    26
        -50.46438795  Gyration_radius:  2.4118592791 Dipole_moment: 6.251
 S          -0.62290343232612    0.80772670462605    0.45031233750891
O          -0.12567885099892    1.02207062442155    1.80481265563516
O          -2.05443724288466    0.61909936174227    0.35364681268296
O           0.02672967424194   -0.57856629533676    0.00363965775077
O          -0.08785886928580    1.79251938855070   -0.46994906415774
H           0.27750847943515    1.28032401606203   -1.96661942918459
H          -0.57863822478907   -1.25762701708559    0.42494291586316
O          -1.75820442683173   -1.94198794845277    1.24818954558621
H          -1.52654172805719   -1.76057289968098    2.18126147812180
H          -2.35495599544318   -1.22066335148353    0.99961577374708
O          -2.00361969281554   -0.23118086765617   -2.18503448818146
H          -2.06332331357233    0.06515628876892   -1.25382914753941
H          -2.72290151804331    0.20703163852864   -2.64405293874756
O           0.48542099663543    0.66054986680695   -2.71051404618619
H           1.55919843213916   -0.03286130742480   -1.98941731344814
H          -0.33547675340623    0.12742472120957   -2.74725218667136
O          -0.91997499821825   -0.81331474949412    3.54021612115642
H          -0.67914416719295   -0.04472189603090    2.97848994343324
H          -0.18700927080539   -0.94068563465239    4.14427607523522
O           2.28758892910651    1.25179826911434    0.73774225569226
H           1.46278440486753    1.09685298575225    1.25190200646661
H           2.10851247187456    2.09038216345429    0.29933685763383
N           2.31252186163566   -0.46594298329079   -1.29838991857269
H           1.92170763210689   -1.33929776088711   -0.95248649796600
H           2.35871538132979    0.20416616271193   -0.46766375956539
H           3.21998022136644   -0.59767947022942   -1.73317564622991
