    26
        -50.45492379  Gyration_radius:  2.5290134609 Dipole_moment: 8.893
 S          -0.59466004292028   -1.49900272522882   -0.15854525742442
O          -0.43612296421477   -0.74974888225432    1.08629676537622
O           0.50436969582806   -2.36613255784108   -0.45637474509500
O          -0.70599870213209   -0.39924650585911   -1.29943267874153
O          -1.91510297964382   -2.14100295426704   -0.21401403170562
H          -2.76932622995909   -1.07006971988166   -0.34575976316239
H           0.20334647365832   -0.04773442863433   -1.47689591724672
O           1.60916797523678    0.71610184174716   -1.81894107664664
H           1.74655342717621    1.33763493031664   -1.04562207469082
H           1.49519226380597    1.26870589851732   -2.59372968573360
O           2.00616137902556    2.25116637445716    0.24875922683586
H           2.88919578768360    2.61544438257097    0.33012451777729
H           1.96091966411527    1.51587510948955    0.93036087989856
O           2.97548636885361   -1.31098344576366   -0.30091239088673
H           2.18577913707453   -1.88250886869104   -0.31910075404109
H           2.83949153421650   -0.69376243926164   -1.02831798703440
O          -2.21285718495691    1.04147861455245    1.64858273378152
H          -1.44167311421629    0.43665157799973    1.47728836514792
H          -2.43046286117785    0.92321330191935    2.57476912547042
O           2.01983040317165    0.14277762655673    1.76498377707668
H           2.55463083027682   -0.42774196390242    1.17226963260796
H           1.11569642885756   -0.20815089860598    1.67834317579653
N          -3.31865773082626   -0.08392505149908   -0.45127438179485
H          -2.90528460416187    0.36576695887129   -1.26463300467987
H          -3.05440519438107    0.46340553162838    0.41594212773349
H          -4.32126975037922   -0.19821170693468   -0.55416655865311
