    26
        -50.46002389  Gyration_radius:  2.47722927074 Dipole_moment: 2.415
 S           0.63364702812919   -0.40529947543589   -0.57447151060298
O           0.93691659942935   -1.36849046399318    0.47603373793446
O           1.52909711169561    0.73397344677180   -0.55613756277448
O          -0.77193956784525    0.03168767235277   -0.48156742872380
O           0.79036795366587   -1.15398659127392   -1.91756463464595
H           0.26869151464750   -0.59221398550390   -2.56511779280750
H          -1.60719674340336   -0.54846706950914    0.58604597297564
O          -0.01325908014103   -0.45315339867243    2.77871808368319
H           0.09670621210795    0.52927754943831    2.57471762399827
H           0.57827305233759   -0.88027577652773    2.12380055934394
O          -0.66260046735774    0.55306084471681   -3.15278956574674
H          -1.17592268064452    0.58862804483686   -2.33413343401786
H          -0.08668752336467    1.34819949449949   -3.13161673626733
O           1.15036678304455    2.42805508000639   -2.54670468139744
H           1.34185338984391    1.88012515497113   -1.75390702876451
H           1.97469852459515    2.48851053904524   -3.03252105775675
O          -0.86930005334887   -3.25043228907737    0.69940182955147
H          -0.09785593247672   -2.67387046618246    0.48574527892995
H          -0.54707989984242   -3.92815201523733    1.29661644457220
O          -1.97841417224137   -1.04875610504263    1.41763842503534
H          -1.20244226772006   -0.77438542549689    2.16462473480434
H          -1.77232333450559   -2.01294217663827    1.19818899607117
N           0.32072839678502    1.92480273558184    1.74461496878864
H           0.86888128778641    2.66239202574562    2.16974409842673
H          -0.53820759696330    2.33666566639195    1.40104380103271
H           0.83300145599102    1.58504698430272    0.92959688812739
