    26
        -50.46283710  Gyration_radius:  2.60528757249 Dipole_moment: 5.559
 S          -1.20285809496439    0.38797511685105    0.47727169682894
O          -1.54033741832178   -1.02331358284512    0.50912067251973
O          -1.38928620245217    0.95571703481240   -0.85513875571416
O           0.19431290315572    0.57379404257010    0.91322674851685
O          -2.11566907409898    1.14847208081658    1.46460958939486
H          -2.02969346564000    2.10885739533007    1.19346178015072
H           0.85886271865971   -0.52018688856220    0.02094659338306
O          -0.19322438729013   -2.82921219540464    1.90700211657051
H          -0.70216027979059   -2.10969706842177    1.47092230142776
H          -0.84752010312709   -3.46067176739365    2.20983871152809
O           0.66869426852988    0.79416562995842   -2.46218534126559
H           0.37683096925017    0.98463871058054   -3.35482632417604
H          -0.12804661823568    0.91051439005653   -1.88627734048001
O          -1.70054240816404    3.40748245491152    0.27875900892167
H          -0.72339192002088    3.49094661830261    0.24828885220298
H          -1.91978246261097    2.90848197750560   -0.51870989280285
O           2.04310678397026   -3.29129918263454    0.52178580815258
H           2.78076954800248   -3.12896153057044    1.11238695783201
H           1.23544760888712   -3.26137110680581    1.08526023973656
O           0.92942157182222    2.91597274691463   -0.11791074842926
H           1.11616597047654    2.63126523387688   -1.01729769887966
H           0.78386988875841    2.09061517266160    0.38474360827687
N           0.90411694430993   -1.26452721568151   -0.74420059178198
H           1.53283852319920   -2.05425291954903   -0.44900744260048
H           1.13648456932753   -0.77171499670646   -1.62129062000560
H          -0.06840984356658   -1.59369014067358   -0.77077992931972
