    26
        -50.46734186  Gyration_radius:  2.42894985632 Dipole_moment: 1.200
 S           0.22119664263058    0.97228469412742   -0.92599439284218
O           1.13663648050185   -0.16082889809710   -0.78370318293160
O           0.68223799491423    2.12642308993276   -0.16986465622776
O          -1.14169965114220    0.60121223193160   -0.55548034072588
O           0.21026192434238    1.36895840261241   -2.42702600724732
H          -0.15461771342034    0.56979623837922   -2.87909635329381
H          -1.26440781382998   -0.81802374707021    0.38496518226590
O          -1.17280369814218   -1.56931349018899    1.00310316256185
H          -0.80258679485646   -2.27506793511865    0.46207060880829
H          -0.45884256998650   -0.80527902993679    2.39023692373195
O           2.19523678753799    0.39756398033104    1.58653311904312
H           2.34666660168261    1.33811767508465    1.46648308609380
H           1.90426637430715    0.08685683740428    0.70578924520193
O           0.21980195793784   -2.51569020823977   -1.34800742844830
H           0.59667616704728   -1.64215243018227   -1.07233338738889
H           0.96639254260289   -3.11196583803011   -1.42808697982364
O          -0.05185340046395   -0.10100267108034    2.94282539188730
H           0.86980428349422   -0.01352399315761    2.60799149715811
H          -0.69334822181547    1.10350549907195    2.36181074677079
O          -0.56390296127024   -0.93592068504822   -3.44250292142327
H          -0.46602349594725   -1.58294646767252   -2.71482015915513
H           0.03548832018618   -1.21293344906518   -4.13927240910903
N          -1.08791967711561    1.89339713095828    1.70104874630180
H          -0.28429348791015    2.24316837405272    1.11060539345082
H          -1.59096268127676    2.62764166608221    2.18635722174281
H          -1.65140391005256    1.41572303290210    0.97636790358050
