    26
        -50.46175344  Gyration_radius:  2.40963598281 Dipole_moment: 5.651
 S          -1.16216330992163   -0.11954371664269   -0.85383133447166
O          -2.40112652637192   -0.22133730385289   -0.09484779695074
O          -0.09120881234643   -0.87354513046989   -0.18790170938489
O          -0.75964300664741    1.26970939388209   -1.05087837791160
O          -1.40591865796838   -0.76854246554913   -2.22951976776748
H          -0.49735617358123   -0.82703247656660   -2.64412037027851
H          -0.35099237266659    1.89675420225127    0.44536228821991
O          -0.05744822196171    1.95297905803248    1.38398598158866
H          -1.12788861605293    1.10844188593046    2.04233997744380
H           0.83035892410588    1.56584799686400    1.38503997578606
O           0.96340112794546   -0.73621642517542   -3.26017888319347
H           1.37246218168493    0.04709823055060   -2.80010173916852
H           0.90083984658114   -0.49545790204369   -4.18705776468044
O           2.07643750756482    0.32527406982002    0.60969361194444
H           2.78000276535032   -0.31996482391846    0.68922415080622
H           1.28538750025837   -0.16464147389678    0.27101763285126
O           1.72466305482208    1.40357072379268   -1.95168521989626
H           0.78875897754795    1.55825602204258   -1.70915039113097
H           2.15340688690623    1.19105389305025   -1.10902887027476
O          -1.84761073377268    0.39540667434567    2.25237829138398
H          -2.23365065202359    0.18157130876401    1.31029437287496
H          -1.30969702659056   -0.51720039134722    2.46721566723224
N          -0.54288553779316   -1.75580588415446    2.38767730839102
H           0.30394193124238   -1.83957733380299    2.93404514984956
H          -0.29778294093071   -1.66212803041448    1.39363387898070
H          -1.09428810535341   -2.59497006148474    2.50639395774447
