    26
        -50.45695818  Gyration_radius:  2.43960033301 Dipole_moment: 1.626
 S          -0.71513109616341   -0.40829160019525    1.12575858826001
O          -1.21309097011796    0.70696971566735    1.87525750363273
O           0.71437661525646   -0.60990657594943    1.23176465752525
O          -1.07482602951491   -0.22538977920155   -0.36348128638525
O          -1.44617191111675   -1.68095482511078    1.49809719432076
H          -0.85864796943875   -2.45053834716383    1.09979497149641
H          -0.69228089243096    0.68723492292923   -0.71241627479560
O           0.17474317618382   -3.26826888289645    0.46759009214891
H           0.96057911487699   -2.80440590247308    0.77661696377936
H           0.10747822460849   -3.06670925133555   -0.51311819802756
O          -2.13355540192046    2.88700406037572    0.58292184681927
H          -1.87312909338411    2.15509692770353    1.17377387023175
H          -3.08857073265626    2.85179405194924    0.51288284271959
O           0.01843936259600   -2.33872380422158   -1.96196976483614
H          -0.74911061713522   -1.76679898114385   -1.86668245884664
H           0.79435287533931   -1.72392599240964   -1.94128096384343
O           1.34603342809359    1.99616703084308    1.19606492822763
H           0.79825389830389    2.40047725930084    1.87368945378593
H           1.28320164505894    1.03613700152842    1.34498368203243
O          -0.15835012383458    2.01662078377874   -0.99207287615751
H           0.53704681398917    2.13236554983765   -0.30024231370649
H          -0.90764441447890    2.55727151184569   -0.66796746213373
N           1.91076601622224   -0.47870947787178   -1.48093754841886
H           1.74686327302844   -0.46609907384415   -0.47807618504466
H           1.61015254669974    0.41671378598577   -1.84709626597786
H           2.90822226188435   -0.55513011756426   -1.63385498695703
