    26
        -50.45006075  Gyration_radius:  2.51397918013 Dipole_moment: 1.825
 S          -1.30902699398166    0.10568523190945    0.78443181237798
O           0.04495993776758    0.61507537032853    0.89474389971682
O          -1.98306321674827    0.01465326166889    2.04372306235596
O          -1.24506408380485   -1.28705320563841    0.10995068126889
O          -2.10820199536847    0.92845647512976   -0.19068817968153
H          -1.82094405935378    0.76897508695608   -1.20662926930779
H          -0.69329233542821   -1.88685252191271    0.70066011081262
O           0.15754266747691   -2.64550738969253    1.77205643745417
H           0.29287038682230   -1.95127196996889    2.47114710152522
H          -0.35847574357391   -3.34253641500146    2.18347158939351
O          -1.48077492332101    0.63174933810632   -2.56867628493088
H          -0.47328874210863    0.78042594099556   -2.68059660078946
H          -1.90910374615554    1.35283807681142   -3.03635400603949
O           1.02634737845098    1.09140081377842   -2.71156118896034
H           1.39755957538882    0.31659325915235   -2.22711169217538
H           1.05464501999470    1.82716187452635   -2.07159605845642
O           0.21013236070525   -0.59977299903271    3.41860301844998
H           0.76339456403985    0.05207807947690    2.97753672368526
H          -0.70177423422942   -0.33938293165775    3.18626129756444
O           0.78360236439729    2.74572753452963   -0.56857295529101
H           1.47741416567715    3.19255141600532   -0.08140524804895
H           0.47473634595277    2.01339713055191   -0.00195516463531
N           1.63738140263413   -0.92753843148120   -1.01705841679474
H           2.52112256726933   -1.30970035835486   -0.70497918538386
H           1.02977830052656   -1.70536413108596   -1.24381803881247
H           1.21152304696474   -0.44178849611183   -0.23158346533038
