    26
        -50.45748039  Gyration_radius:  2.49152501045 Dipole_moment: 4.362
 S          -0.40589173343234   -0.92921268185040    0.29178195464285
O           0.49186082820555   -0.27762784743080    1.24613274936588
O           0.23951252107187   -1.12513472420598   -0.99501701924003
O          -1.64014824489739   -0.14006392256949    0.15147784862647
O          -0.77208432198168   -2.32365084436397    0.82376031829434
H          -1.21241143207438   -2.21926844855729    1.71840864714371
H          -1.41255753397672    1.03504723389117   -0.65304930968141
O          -1.76454752135086   -1.93960125433932    3.17430328671001
H          -1.12986040002089   -2.22502294311960    3.83503578999700
H          -1.76267013393391   -0.94766682974431    3.19324448369661
O          -1.01621078356532    1.80475951959624   -1.25109397185392
H          -0.83863987263315    1.33209010252452   -2.13465285683291
H          -0.04462285721559    1.95658138448904   -0.80034797032387
O          -0.35404490907629    0.23287835160985   -3.14977159019030
H           0.49029805189520    0.38128316638151   -3.58013206663336
H          -0.19304932066808   -0.43475907228029   -2.43999888838169
O          -1.44395964012008    0.64284625556128    2.80830368254800
H          -2.06699747737803    0.81041344254949    2.09323026992334
H          -0.60270196685541    0.43465763869635    2.35471081757608
O           1.20699569128918    1.83860275733491   -0.14778742111539
H           1.86532787783005    1.41854325972091   -0.75650100534264
H           1.02823484592168    1.13673257116229    0.51989172404251
N           2.74605119094490    0.14635065909942   -1.54197711262811
H           1.99463722950224   -0.52705579845882   -1.38415697256092
H           3.49146883995555   -0.08817297240557   -0.89771989391937
H           3.10601107259205    0.00645098670723   -2.47807549389561
