    26
        -50.45282868  Gyration_radius:  2.49038101027 Dipole_moment: 4.020
 S          -0.82245573780170    0.24203279797722    1.31299090177859
O          -0.63804188088196    0.40344063989668   -0.13185053003248
O          -1.64453227058626    1.23391181236903    1.90900514231576
O           0.54008697320708    0.24856662457716    1.99320292515898
O          -1.40334125674977   -1.15069549417986    1.55724386018835
H          -1.16900899610179   -1.83501024125814    0.81867920978619
H           1.35101957292120   -0.13145248497749    1.44436306927179
O           0.28767295316436    2.84034067544491    0.56189198823538
H          -0.11824077350795    2.10106943623777    0.08772490440118
H          -0.19602843950368    2.88472835213352    1.39212870914743
O           2.88882423538219    2.11571895767580    0.22761901904950
H           1.97494949580339    2.45663279362640    0.31948061210115
H           3.40676335559089    2.56049204770551    0.90050176080542
O           0.99101043832383   -1.06707176339617   -1.55931931846335
H           1.17776669860160   -0.69519414000275   -2.42279939217170
H           0.36071041527348   -0.45437529478018   -1.11458880448324
O           2.49512136428423   -0.47863909651615    0.62359422914428
H           2.13976561881318   -0.83434505448025   -0.21218236593845
H           2.80254197738031    0.43913863592757    0.42552906885994
O          -0.93798566781853   -2.70561512358208   -0.38092925387297
H          -1.67639540487683   -2.33328053006650   -0.92233117931494
H          -0.12218068999233   -2.42220762317967   -0.82094724000992
N          -2.78317350839144   -1.09108829313054   -1.49037895903524
H          -3.62927591700998   -1.12873140029746   -0.93573048980680
H          -3.04892143773783   -0.88241875348715   -2.44469463429461
H          -2.22665112761781   -0.31594747017694   -1.13820326262326
