    26
        -50.45130103  Gyration_radius:  2.55549726873 Dipole_moment: 0.909
 S          -1.13942599530406    0.48220402898044    0.06819564503184
O          -0.96147249417749    0.72905636211105   -1.32841194281708
O           0.07974857484978    0.54063654898426    0.85226294891444
O          -1.78615275407500   -0.89114066920022    0.28675319975469
O          -2.14847360403593    1.47272993638925    0.63792939344852
H          -2.36264381932853    1.26148206648059    1.61707106991661
H          -1.50119057114882   -1.48929407656280   -0.53186415507206
O          -0.62541938871647   -0.91925066997603    2.98214883522348
H          -0.17272599040331   -0.41876613943418    2.27764501993821
H          -0.93903992903480   -1.72836796566877    2.57035277862810
O           1.35643092949222    2.18028833151364   -1.09284541531197
H           0.51577011279345    1.84734172875646   -1.43760816848940
H           1.35165325434153    1.92378291778670   -0.16548259952866
O           1.39867502862889   -1.45751433378301   -0.58123896908021
H           2.01445705018560   -1.00907637903582   -1.22128136691017
H           1.11232561761305   -0.76216124704645    0.02530632909417
O          -0.85199812788157   -2.04314961706557   -1.70437375323390
H           0.08729782349053   -1.98750350789783   -1.35101360688284
H          -0.93856258168699   -1.30612657004735   -2.31943970295506
O          -2.51418101405454    0.90146796687759    3.08364557076783
H          -2.19933195987043    1.61779262794473    3.64023818768656
H          -1.87068647360318    0.15273971091371    3.19269717626515
N           2.90765893767244    0.01712116968740   -2.24062657791151
H           2.51082538208577    0.91461178554960   -1.95629247175974
H           2.77270212989169   -0.07761045518028   -3.23903120078398
H           3.90375988230117    0.04870644895221   -2.06473623396022
