    26
        -50.46381820  Gyration_radius:  2.44149164639 Dipole_moment: 5.811
 S          -1.07004519533060    1.25575727669121    0.77824158861090
O          -1.23175954814679    1.83539469496472    2.09181740996546
O          -1.01874841525290   -0.20574681153690    0.82322055958552
O           0.42557677417587    1.67410078095403    0.30691569981109
O          -1.93402377317517    1.74645822224225   -0.25656925827570
H          -1.14767730748238    1.25352510017051   -1.59580507225402
H           0.92191747372007    1.64056055096520    1.14197551645631
O          -1.93304771127930   -2.23921180840558   -0.60665852205058
H          -1.86401376508582   -2.97014568529731    0.00932840170258
H          -1.72747687344195   -1.43183290845102   -0.09041124654508
O          -0.65282868859983    1.00374234245909   -2.41046065225193
H          -1.01381281903720    1.56102790846606   -3.10163172300411
H          -0.46990460786430   -0.74672606649779   -2.69894291426542
O          -0.13193844145174   -1.63336700337354   -2.46543899417231
H           0.93659334736779   -1.09139580555537   -1.55901644435555
H          -0.82423604855062   -2.00610872046384   -1.87315760848053
O           1.23726538575120   -1.24054159488153    1.61845263964949
H           0.29934334091235   -0.99441423014544    1.43906896222243
H           1.52914600296946   -0.57761411250877    2.25667992243847
O           1.14151156386209    1.28447320043483    2.85851774675814
H           0.16300331928137    1.44450905534934    2.77629842856815
H           1.45902931974737    1.92134290933892    3.50165339894745
N           1.59961454755369   -0.51738306309586   -0.90534229766986
H           1.61780747719567   -0.94089983189496    0.06480479838824
H           1.16112989863677    0.41259768799567   -0.79718016035124
H           2.52757476353112   -0.43810206793171   -1.30636015942825
