    26
        -50.45179187  Gyration_radius:  2.51367839833 Dipole_moment: 1.553
 S          -0.11808635676707    1.70066178989044    0.14856404580727
O          -0.16390583721042    1.84065743552034    1.57272018912076
O          -1.00643795959119    0.64635644554030   -0.34769132497500
O           1.25263732720440    1.42810520263081   -0.35270299665494
O          -0.56903960991296    3.04622415225285   -0.49214019113415
H          -0.37986516384295    2.92136425833697   -1.44225419301960
H           1.57142250379764   -0.01508491190286   -0.43497865324798
O          -0.30518027372921   -1.41949155940169    1.13952728907893
H          -0.07003419073698   -1.12311129023707    2.06746301935937
H          -0.73667835654471   -0.63715910454642    0.72684202317569
O          -0.28176337093849   -1.11333130891514   -2.21185927044468
H          -0.80789949335225   -1.88669044882961   -1.90866819946734
H          -0.69339378645582   -0.34000409671334   -1.76808894126187
O          -1.64122185916435   -2.91592280067029   -0.75776223637675
H          -1.20855504799873   -2.62054815869926    0.06071697101247
H          -2.57175657426567   -2.70493446902841   -0.66433596905063
O           1.54680993573299   -1.04826883414201   -0.53505799874160
H           0.88531573695571   -1.16658899670710   -1.38288876660483
H           0.92767495641231   -1.34504816669358    0.24225764821815
O           0.56321209907439    2.26441090356649   -2.74324466004847
H           1.19368668537464    2.81169430574000   -3.21568026057214
H           1.04431519458534    1.85092513290481   -1.99914747786487
N           0.34427504554138   -0.25740301221994    3.40807452256168
H          -0.27130809138262   -0.28006399149746    4.21110710218998
H           0.19828379294980    0.63515358306988    2.93116368578579
H           1.29749269425045   -0.27190204924750    3.74806465314877
