    26
        -50.46452144  Gyration_radius:  2.52804724429 Dipole_moment: 7.104
 S           0.13411236395677   -0.57455814554538   -0.53861054346455
O           1.35105859945279    0.05214405140708   -1.05949048469512
O           0.45418256000526   -1.61691128862235    0.42089827948529
O          -0.57585871247101    0.54008837774096    0.33210837506599
O          -0.78681196967555   -0.97214453778585   -1.57511261494663
O          -3.17557581978952    0.12111358932653   -1.90930162446157
H          -3.79165587668618   -0.33619392554481   -1.33576715020433
H          -2.33187585547996   -0.37852771849234   -1.85535678643983
O           2.99556375014090   -0.47077997793209    0.84306470952102
H           2.48896214539264   -0.21399212590013    0.02482211610278
H           2.91199209196642   -1.42801579349134    0.86949583026983
O          -0.08185487149048   -1.86423185849153    2.95697750986788
H          -0.03463462249678   -1.87812080458583    1.96941284208295
H           0.23584180146795   -2.71987565467867    3.24906109229746
O           0.14696686778030    1.23659269741471   -3.09742629369511
H           0.74431280081123    0.84742119736367   -2.42785777210374
H          -0.35898958230214    0.49075073645919   -3.43298579038838
O          -1.54984419020659    2.16304781685770   -1.29552233693938
H          -0.91766990004832    2.04448551956475   -2.04786879104370
H          -2.34130157434977    1.64844836951555   -1.55758041844535
H          -0.97964653822793    1.25924716053014   -0.31511440994446
N           1.10127811111756    0.43739364590147    2.38829653553348
H           0.40196407166375    0.65909122726182    1.64095834947475
H           1.98292379838483    0.11351609929522    1.86021390057519
H           1.27136822615708    1.23063890243230    2.99751963438868
H           0.70519232492502   -0.39062754999632    2.89516583209741
