    26
        -50.47385537  Gyration_radius:  2.44306403226 Dipole_moment: 4.148
 S          -0.24463862444114    0.11529646805362    1.46993386337626
O           1.19193601458709    0.22884579193848    1.34610888849966
O          -0.76405744894242   -0.94766714529379    0.59727437688668
O          -0.95008922076431    1.36577129530365    1.22586100972876
O          -0.53644221333332   -0.32718784678248    2.93797369926825
H          -1.50309477559854   -0.20655600908289    3.01861586976894
H          -0.62961402008195    2.01476598523870   -0.35019277914232
O           1.48695807717176   -2.26272570139385    0.32423856089944
H           1.95307439002547   -1.65394947252754    0.91227519316351
H           0.54941171329890   -2.00228092313747    0.45983209555067
O          -1.09135269498017   -0.54217993160015   -1.93562197962582
H          -1.89696900414011   -0.98217671431850   -2.21062241243907
H          -1.03255064996390   -0.67514457541828   -0.95087361532499
O          -0.37168694057181    2.12093161493947   -1.28579818583031
H          -0.76628007781545    1.36615987793851   -1.74245310092929
H           1.30880894862563    1.83641311023963   -1.13322370157926
O          -3.00278608098957    0.57790165374578    2.63148648480068
H          -3.28963310252274    1.26259249740893    3.24015755031855
H          -2.42841221501760    1.01851803963396    1.97072148607295
O           2.12251558416254    1.33095462234513   -0.89306468579521
H           1.91943225013570    0.02693591038251   -1.60566129374989
H           1.95384371680613    1.04864321177379    0.02985382221409
N           1.60118838460268   -0.95547303951269   -1.96739652020272
H           0.59945610426507   -0.87219847550543   -2.21922490355417
H           1.65876649415029   -1.60357298894060   -1.12501167642290
H           2.16221541130349   -1.28261725545382   -2.74518804598457
