    26
        -50.46296398  Gyration_radius:  2.40751205862 Dipole_moment: 6.021
 S           1.23893994170574    0.97522600712957   -0.96987714061114
O           1.09921927582287    1.21900654832968   -2.37152454770698
O           1.06935848074690   -0.45316959823446   -0.64066244222197
O           0.09091444284397    1.71867130974654   -0.17906334002016
O           2.44760051986996    1.51838140320341   -0.34837753705389
H           2.08729787201159    1.77103331437055    1.00247624242899
H          -0.80327352635237    1.36005571038491   -0.47351051932847
O           0.58318755286214   -0.49674346307069    1.93529712652083
H          -0.37397982071978   -0.66303981449931    1.91079055145324
H           0.86237821536600   -0.57608103771261    0.99226507826516
O          -0.69181188251170   -0.84638257834467   -2.65086365099048
H          -0.51500964023679   -0.28549521986946   -3.41052137660766
H           0.06621081587904   -0.67708688170365   -2.05793284277569
O          -0.51601433062933   -2.73168044803497   -0.54053362705380
H           0.26909573298846   -2.16394308830411   -0.49955734383080
H          -0.86754400334286   -2.58654589194932   -1.42658693553791
O          -1.94978827889400   -1.32286982781545    1.17501781403413
H          -1.45169753531336   -1.93525240363848    0.57125112858374
H          -2.61729652584727   -1.85360707919057    1.61091645143146
O          -2.11077561422402    0.56832945204963   -0.83132463307652
H          -2.20305722226099   -0.04248459599900   -0.07882364422310
H          -1.79305802624364    0.02652814753108   -1.58285068558394
N           1.64063547502545    1.87448474848939    2.01678075065739
H           1.15035070302871    0.92889991620060    2.15489506915613
H           0.94776920859183    2.61548364504411    1.96433356059290
H           2.34034814982784    2.05828173587805    2.72798648349123
