    26
        -50.47362568  Gyration_radius:  2.40498878401 Dipole_moment: 3.716
 S          -1.34081630589928   -0.54382452135311    0.23293943672977
O          -1.30195510523087   -1.97671547620295    0.02056924713068
O          -0.66452221574251    0.15310907317976   -0.88285674670525
O          -0.73340433431964   -0.13983810337073    1.49345247788501
O          -2.81788242007290   -0.09231098992732    0.22278539119227
H          -2.82127596954251    0.74579008477274    0.76993769901765
H           0.88794265760580   -0.60704206439302    1.81649425008749
O           1.82916064427889   -0.81748778884924    1.63574988040616
H           1.61147423223631   -1.97315483282825    0.59320323836810
H           2.12724518954949   -0.06530263033173    1.09262383732574
O           1.40236838328719   -0.90969651910683   -2.29097609670254
H           2.01252485340357   -0.20541488350018   -2.04343426602719
H           0.52209888718997   -0.57228040842483   -2.03859126581069
O          -1.02760120661096    2.76400316342429   -0.63607001612890
H          -1.56976221690998    3.11423176888047   -1.34448901035754
H          -0.92375901484508    1.80437564673672   -0.81680870501009
O          -2.31492164182403    2.00050054340619    1.62542495001730
H          -1.62420855876291    1.42392441825705    1.99051761935592
H          -1.87298694921933    2.53610714218933    0.93797837874129
O           1.75939096423764    1.13781505561915   -0.25742150483456
H           0.85458816567133    0.80217709583224   -0.42450976727059
H           1.64985917833559    2.07099194746660   -0.06429926366834
N           1.21643922371037   -2.56021502081537   -0.21153448567263
H           0.15926584831203   -2.48535157677155   -0.11408316034854
H           1.53069858885879   -3.52373147957433   -0.18783802589176
H           1.45003913222689   -2.08065963430363   -1.11876409194356
