    26
        -50.47254416  Gyration_radius:  2.47192461229 Dipole_moment: 2.241
 S          -1.37481022155184   -0.04141747892241    0.32137273808149
O          -1.33648753020013   -0.32375159071739   -1.10524584500353
O          -0.09869848600326    0.52536177350566    0.76665699744306
O          -1.76336405929550   -1.17632521171256    1.13163355361748
O          -2.44508161967180    1.09473392274227    0.49518687916129
H          -2.74487689096928    1.03096202404591    1.42602848980301
H           0.32652653298383   -2.50724985519411    1.26230789930248
O           0.99156809488036   -1.90243269518722    0.92474498492234
H           1.04137429452076   -2.01345498617669   -0.86515582760957
H           0.55701219419464   -1.02705111577794    0.96084179295036
O          -0.24767376312571    1.98883811659135   -1.67238202029251
H          -0.78778076308070    1.16939706842127   -1.60768182823261
H          -0.31008581622738    2.37787444253340   -0.79579546411553
O           0.83875402883919   -1.71481433853294   -1.77430259033613
H          -0.06497582880863   -1.34433897862104   -1.70325876748383
H           1.63015135568854   -0.37761460823130   -1.92351176013507
O          -3.04830015853448    0.22606991077327    2.91724875067803
H          -2.54387284506969   -0.48129759187985    2.46086248562585
H          -3.94000957605738   -0.10989171850263    3.03300884890481
O           2.58692099590169    0.64982465322348    0.78242750171039
H           1.63765695835798    0.80542207818375    0.94438204721110
H           2.73933246978559   -0.24827179156069    1.09317305124654
N           2.02679775672024    0.61544613920932   -1.82158360792455
H           2.70522677269062    0.83400540062390   -2.54195904647506
H           2.43265856139224    0.68386780673033   -0.85172991127704
H           1.19203755261389    1.26610863445255   -1.85726937179054
