    26
        -50.45430425  Gyration_radius:  2.43209091412 Dipole_moment: 4.371
 S          -1.29399451837371   -1.05234116665711   -0.17745568275623
O          -1.09870455279398   -1.86489149867621   -1.35481685367703
O          -2.31544156069905   -0.00704274660748   -0.39391247310001
O           0.04020456300360   -0.20944287706253    0.03981054342116
O          -1.47002130137851   -1.76425063368233    1.05916928603161
H          -0.64730921906911   -0.96243178070475    2.28140588004720
H           0.07433322813095    0.42937862897963   -0.70641528540026
O           0.88437073120303   -1.02794686650457   -2.78863529096522
H           0.14433201228901   -1.41929818682987   -2.25692876840613
H           1.19779903302931   -1.73329463528783   -3.35687844515419
O          -0.56732686634201    1.25210104586013   -2.04455379121913
H          -0.20208826750752    0.65028581205295   -2.70699684707226
H          -1.43023145072690    0.89221932747728   -1.77864510058417
O           2.68527391383559    0.00836626154711   -0.94761658165935
H           2.76267995739945    0.90772097857672   -1.27028078878833
H           2.06833986293001   -0.44079004968598   -1.55475554716906
O          -0.25694485455544   -0.22048147438002    2.80017819870758
H           0.66197353821488   -0.11186774764043    2.45503928278764
H          -1.04639703290227    0.81157218506948    2.19573570049776
O           2.23940177564435    0.03732881838319    1.80308402393600
H           2.25091456674055    0.02369553892960    0.82621057887885
H           2.77969146806995   -0.70565811865708    2.07740970336279
N          -1.71473814748620    1.49890214887844    1.60583295738574
H          -2.06344679966285    0.90345179254094    0.77335510940015
H          -1.18410152431828    2.28960032769387    1.25299445163664
H          -2.49856855469713    1.81511491637632    2.16766575986519
