    26
        -50.47124715  Gyration_radius:  2.41729631919 Dipole_moment: 4.885
 S          -0.54877357540293    0.73874296496093   -0.00321251742018
O          -0.22248821500381    1.05818251178802    1.37962156693349
O          -1.96334486019906    0.49535945996610   -0.21155236227616
O           0.26381426015091   -0.37454147354435   -0.50795467645599
O          -0.11641908413610    1.99652577224176   -0.81430061923989
H          -0.40369923514296    1.87951045707159   -1.76734009628581
H           0.52376861659675   -1.86381395233476    0.44470562336439
O           0.58049828076032   -2.32426892318082    1.30272964034957
H           1.51965177095921   -1.20361894492114    1.91960606715189
H          -0.31410339791549   -2.19620873442694    1.67377560424378
O          -1.66883041851436   -0.85826273198129   -2.47162589695661
H          -0.84049385395888   -1.27685564047352   -2.21620745522517
H          -2.00157465695306   -0.46097518432589   -1.64202763284429
O          -0.96472881453858    1.56480987145900   -3.21771517352143
H          -1.78084009429534    2.04941028326604   -3.35965111942675
H          -1.22494889579389    0.61197748228020   -3.11992610351714
O          -1.83043222288834   -1.21127815694027    1.88448078687961
H          -1.79008739372605   -0.57109848931464    2.59840468269787
H          -2.02666505721565   -0.68310240038551    1.09124507637325
O           2.67021841678452    0.66863028170123   -0.29625117347893
H           1.82665660044099    0.23074219653577   -0.54430061308041
H           2.54089889907551    1.59619927845669   -0.50481902702376
N           1.89470025724021   -0.21726744673319    2.10000367977852
H           2.32605419026452   -0.10543877457970    3.01009043759904
H           1.02989261580308    0.39744517941222    1.95897260341128
H           2.52127587765538    0.05919509394633    1.31324871797728
