    26
        -50.45677433  Gyration_radius:  2.47324033952 Dipole_moment: 3.903
 S          -1.04704327414771   -0.87886414790071   -0.98957703847289
O           0.30190390393577   -1.39532079925312   -0.89851985553921
O          -1.33542371495720   -0.23589516521912   -2.23621627915679
O          -1.26981935866822    0.11104878299740    0.17765227118531
O          -2.06397446445106   -1.96104185940415   -0.70022502941522
H          -2.05391349140383   -2.11836374360960    0.33296762260065
H          -0.70346945634441    0.97459764571948    0.03617204832424
O          -1.91641994755905   -2.12206598772072    1.78946734205155
H          -0.91565775107991   -2.19331962902085    1.89037770481653
H          -2.14273170712422   -1.22412721516002    2.04767985042516
O           0.15970430566730    2.11849921271125   -0.28096890753686
H          -0.17186971758922    2.40778718700532   -1.16072283216534
H           1.01638239028834    1.67509044653494   -0.47075413565706
O           2.17231481754583    0.48541001213748   -0.93843044276538
H           2.52323955566267    0.55240687707801   -1.82845987357573
H           1.57292189592827   -0.29174917461178   -0.93879721132753
O           0.65662475690883   -2.05011848309087    1.70856585839500
H           0.69759264251126   -2.01315206613126    0.73950349018341
H           0.99817987334495   -1.17313642762045    2.00317375219344
O          -0.75243648006678    2.30979719550710   -2.76805424338304
H          -1.55017006162543    2.74451352843266   -3.07390699624943
H          -0.96074578967742    1.35453746188940   -2.72963491638060
N           1.58767796923383    0.48050247998569    2.10476871174820
H           0.86625871396292    1.18328001833056    1.99649113475706
H           2.17821247447195    0.52760019850464    1.28140616277700
H           2.15266190514566    0.73208365194314    2.90604180219004
