    26
        -50.46302228  Gyration_radius:  2.50651236249 Dipole_moment: 2.716
 S           1.76800184805273   -0.95361347899034    0.40877075856129
O           2.17431723750811   -0.58212461123931   -0.92678805095361
O           0.75724343305776   -1.99328775314937    0.46571920447527
O           1.40472359317648    0.20096326461508    1.22837891577894
O           3.05364878765044   -1.58221720373735    1.10131572581010
H           3.75308068437023   -1.01195324532724    0.79917087155510
H           0.26586493332990    1.58107720772706    0.85006859214619
O           0.39785613483468    0.11468450670126   -2.70039201580746
H           1.09077754479067   -0.11789535059837   -2.03352400128136
H           0.77933012136572   -0.08864621779757   -3.55599039120492
O          -0.50369559820997    2.58951855462855   -1.99106365243453
H          -1.40331453046045    2.62534933238499   -2.32061236623835
H          -0.13137722032291    1.73972078345615   -2.29370911936040
O          -1.37802793933587   -1.20042351686191   -1.02120848475754
H          -0.64569402955404   -1.63758253607258   -0.55387082104166
H          -0.95691983261497   -0.72393665881630   -1.75179733310097
O          -2.37337688687610    0.24656271945899    0.98657388561725
H          -2.21180707456765   -0.27392017147626    0.16611781875944
H          -1.48455022042043   -0.44769552015383    1.90452754997100
O          -0.53652558775115    2.10122743923469    0.68942153068536
H          -1.83411334736091    1.07293255280159    0.87292693037673
H          -0.47511565656054    2.41236863863826   -0.23456144671956
N          -0.61225271674753   -0.92088944308718    2.41451690859361
H          -0.76574544181208   -1.12288506401163    3.39553518232692
H           0.19881279307425   -0.27906157488897    2.23924823654777
H          -0.33114104867677   -1.74827263337574    1.86122557170844
