    26
        -50.47049403  Gyration_radius:  2.50857169953 Dipole_moment: 4.342
 S          -0.56518392122566   -0.21978930762416    1.44029943010321
O          -1.38114372855478   -0.81811334946286    0.40293637377590
O          -0.80571591549946    1.20120724444812    1.58856705320175
O           0.86711839316151   -0.47598245598519    1.19308824103753
O          -0.93255593104872   -0.93776418101984    2.77285371673667
H          -0.22631317596353   -0.65080214295760    3.38436533655277
H           1.31335790563524    0.13562039198905   -0.19593175063634
O          -0.33659208504977   -2.67198731990649   -1.17548519137345
H          -0.67824277048988   -2.03862059007639   -0.50775529149429
H          -1.06155655636369   -3.27222024813971   -1.35830887361894
O           0.16800353630163   -0.67299890347599   -2.87947067423302
H           0.05490479413911   -1.53035761417456   -2.41222262465678
H          -0.68230577355242   -0.19639660135684   -2.72561246160144
O          -1.87474300801402    0.65771383304844   -1.82067022214789
H          -1.88700050579930    0.11338728095174   -1.01238384620693
H          -1.53686435210008    1.51792498624503   -1.54064631463368
O          -0.30296821781454    2.62691003965188   -0.49410970697720
H          -0.35189347705047    3.55369835587686   -0.25520954193961
H          -0.54016881413587    2.12021324239791    0.33156181295819
O           1.43541568647024   -0.26928224544507    3.74291829606033
H           1.95074799226522   -1.02357960724095    4.03779947161704
H           1.47833311822743   -0.26628232105269    2.76506204342939
N           1.47014623436519    0.66138803623903   -1.09973510470538
H           1.00831928644370    0.08435763702092   -1.91176260546312
H           2.45926309817150    0.81317100243076   -1.26283202051500
H           0.95763817742597    1.55858483762596   -1.00731555528512
