    26
        -50.46302217  Gyration_radius:  2.50640209896 Dipole_moment: 2.718
 S           0.32952697646229    1.35047396747456    1.50643927084062
O           1.19399681869624    0.22597343025288    1.81269534508422
O          -1.05743307230360    1.15752228748164    1.86106479903164
O           0.49970050056499    1.80544487720119    0.12763629667674
O           0.85613305289837    2.54214884913026    2.41753465919142
H           0.12711180474913    3.15376834492399    2.40320865966784
H          -0.20136553196906    1.11752265894500   -1.41534658040947
O           0.17517860350497   -1.99335699277607    0.61433460689836
H           0.57515215464619   -1.30405452700842    1.17173142918637
H          -0.77984419381588   -1.85103359260741    0.69058005927562
O          -2.80659777283605   -0.56824935726536   -1.64862482520304
H          -2.71815655738466   -0.67113539934978   -0.68219118273395
H          -2.84012094544865   -1.45375283487374   -2.01455740463142
O           1.33381180451273   -1.39646951771658   -1.71288409959259
H           0.89238679246854   -1.81932555772801   -0.94049867229618
H           2.18752721360496   -0.44202423464745   -1.02413348632652
O          -2.35878864997423   -0.93529251277129    1.01696925435978
H          -3.05385878708818   -1.09507522251116    1.65749637085972
H          -1.89161942903801   -0.11871847117833    1.32352962762430
O          -0.37563876428320    0.54367182880284   -2.17726463981852
H           0.66523012979766   -0.75209186168726   -2.06555334660028
H          -1.30135780148040    0.24593127518473   -2.08398482790552
N           2.60162552467952    0.37181429224609   -0.38272389458842
H           2.50120766088810    0.08020874702090    0.60451024576319
H           1.90274764206434    1.15247992446286   -0.43184424913152
H           3.54344480609843    0.65361957898480   -0.62812342520915
