    26
        -50.45887413  Gyration_radius:  2.46654968468 Dipole_moment: 1.926
 S          -0.76937298845118    0.54265163426010    0.07143441012005
O          -0.82538414097009    0.51934338845987   -1.38403860795734
O          -0.09429852156026    1.71095140234257    0.60086405407230
O          -0.14215575165901   -0.69327461789550    0.57704438166489
O          -2.24143082331393    0.54682900340160    0.54117318311265
H          -2.25154234466960    0.61349282165692    1.53743011397244
H           0.22958813645648   -1.70908374924117   -0.39069662410785
O           0.53338774114505    0.57344291596987    2.90114342735229
H           0.54922015186934   -0.29827484542810    2.48781979482708
H           0.45297682271859    1.18241106287847    2.13984974287436
O          -1.80018122910113   -1.72335108028033   -2.32315428939229
H          -1.63709464167519   -0.81795354578833   -1.96753224291717
H          -1.94897561533328   -1.62467190959675   -3.26552544129633
O           1.48801171708168   -0.32009600568489   -2.37620928655416
H           0.64728476379161    0.17331086380824   -2.27768374905498
H           2.06825417053566    0.09251448769583   -1.66856391486826
O          -2.08860312072909    0.83951384605769    3.11377466818241
H          -2.26526573415345    1.75824768876545    3.32747660761751
H          -1.11626830300834    0.70565281553347    3.24088744723239
O           0.46410688424282   -2.26628446559030   -1.24653711031190
H          -0.42595998742825   -2.30472123915987   -1.72453269558762
H           1.03282969368858   -1.52067259954491   -1.81149882661887
N           2.51070848702921    0.86548669456874   -0.26500353869389
H           3.19106594370417    1.61078455472144   -0.34849742793900
H           2.81287045835444    0.25859301900561    0.48728559215700
H           1.62622822141284    1.28515784912193    0.02329033210693
