    26
        -50.45278710  Gyration_radius:  2.49743111921 Dipole_moment: 1.340
 S          -0.44062970936013    0.44040619178744    1.79948082705106
O           0.39699007699084    1.53087007211641    1.35788771015493
O           0.02468820605356   -0.85112373255041    1.31356363013447
O          -1.85753666884589    0.62699508666129    1.49214222805765
O          -0.35600172848229    0.40173045361800    3.37430569557405
H          -1.12533951619435   -0.11593641618598    3.58517506168253
H          -2.22438994209772    0.80435880776943    0.07761964523140
O          -0.53610035234547   -2.69652886515674   -0.58203345927646
H           0.28908509783395   -2.51056312037688   -1.04437491102057
H          -0.46466155285731   -2.19736960222275    0.25105100620486
O          -2.28235635352940    0.90213775987181   -0.95254014629529
H          -2.41274713439842   -0.03898754688301   -1.34025136877242
H          -1.29234758457842    1.22802193546661   -1.21149272128734
O           0.08938849736173    1.55835544836573   -1.27325473903083
H           0.63135888339023    0.72918030069643   -1.37401347370889
H           0.25743142428151    1.81753715572102   -0.34306908672169
O           1.49816612656082   -0.61894546548140   -0.91555869721261
H           2.31862485247100   -0.15574943604384   -0.64635489121358
H           1.03394778509703   -0.75054245134967   -0.06426673658992
O          -2.43269076393769   -1.45821801927480   -1.89757584807889
H          -1.77965096877248   -2.00582766494267   -1.38250192330315
H          -2.20801445346346   -1.55757406461000   -2.82426456413736
N           3.16877132882957    1.03758180003368    0.45389391107321
H           2.31507585223548    1.31971155763366    0.93394031896115
H           3.58054641044684    1.87291096819921    0.05604777587673
H           3.80839219730789    0.68756885713033    1.15644475665194
