    26
        -50.46961393  Gyration_radius:  2.49031545225 Dipole_moment: 4.683
 S          -0.88166132085187   -0.91589913215366    0.80400909446022
O          -0.19514063252306    0.16572217922167    1.49033755745039
O           0.01481473632596   -1.59961072148816   -0.11978577257384
O          -2.09791054038940   -0.44954062397051    0.14828158320424
O          -1.28843222269318   -1.98311367889249    1.86926450140591
H          -2.02166715304373   -1.54167950060932    2.33897045900630
H          -1.71903666605917    0.78804459628103   -0.98732307794627
O           2.55907903081007   -1.40938436170527    0.43972115590218
H           2.91139308226553   -2.26649806063395    0.19305974576017
H           1.57617415124600   -1.49960308121726    0.37608981707001
O          -1.27333580843191    1.43113784788857   -1.57300775366209
H          -0.73059704485675    1.97938843342293   -0.99240723544834
H          -0.27189233693447    0.31181005831231   -2.38317914079459
O           0.42571898496346   -0.38299360305983   -2.46624526711123
H           1.61391282632915    0.28378106641226   -1.82874089789660
H           0.20584503068902   -1.01564145234228   -1.75198960378473
O          -3.40522910147264   -0.48730486250896    2.40591030870648
H          -4.26506682547147   -0.89917121129156    2.29396930995523
H          -3.08680541846716   -0.26505133088530    1.50579434579045
O           0.71180134463450    2.24326634610244    0.32345163353191
H           0.33876941034081    1.44143713789100    0.79728425798628
H           0.88219188666534    2.88699951410276    1.01272327081572
N           2.35785922429089    0.71395488526591   -1.15364093427041
H           3.15200870116035    1.10616249438107   -1.64556680181019
H           2.63271195701306   -0.06976724248628   -0.51003755459164
H           1.85449468431571    1.43355429392379   -0.58694299132825
