    26
        -50.46489028  Gyration_radius:  2.53226643761 Dipole_moment: 4.249
 S           0.37424401568698    0.31665035292269    0.35416457399457
O           0.38998049369776    0.26441344932396   -1.20570887442437
O           1.53611648570632   -0.50369412259868    0.72892048386728
O           0.47230686280968    1.68502021960718    0.79638450133917
O          -0.86274780208297   -0.33149466668994    0.78328204710922
O          -0.84118183478195   -2.92079442276804    0.35892655914474
H          -0.35706418438904   -3.11836516968993    1.18668993274201
H          -1.08539769110423   -1.97235138311323    0.47733979345025
O          -2.31074305165727    1.88418216934973    0.51829119865478
H          -1.97179588765823    0.98248706454998    0.67563380467551
H          -1.69656971788830    2.45006766225171    0.99549221298078
O           0.61339251108110    3.72521999659205   -0.90439552552688
H           0.68906258950925    2.99687770504182   -0.25329078461209
H           0.61894267040985    4.53960785953743   -0.39943044459119
O           0.87251573290715   -2.52856388290035    2.38971311244764
H           0.50143545191423   -2.17895337130012    3.20127198253007
H           1.19834321909126   -1.75424768680630    1.88913519622657
O          -1.24574548463430    2.04309750565965   -1.92650480118916
H          -0.28037850065004    0.96138798187348   -1.56083699635804
H          -1.83813234345135    2.04556597360836   -1.13910747660128
H          -0.66042024094731    2.81569642665485   -1.81435672630545
N           1.20145856978599   -2.30784134602579   -1.06626188621683
H           1.91209184232601   -3.00970680214213   -1.24672714791336
H           0.94525763532030   -1.79535342385142   -1.90836392279582
H           0.30301515757799   -2.71872299659265   -0.58045272182053
H           1.52201349139129   -1.57018510246899   -0.34980807079249
