    26
        -50.44900206  Gyration_radius:  2.51409331451 Dipole_moment: 5.213
 S           1.05795573769016   -1.47411658914568   -0.45795333969820
O           1.53578461967376   -0.22985119217617    0.10519498965953
O           1.73441926658181   -1.92259279333504   -1.62680278816868
O          -0.45615162361354   -1.30911287930598   -0.76300186357029
O           1.07805671206603   -2.55924225225233    0.61488362854638
H           0.58647668026352   -2.24932738080977    1.46272675845174
H          -0.50877451589569   -1.12953842679007   -1.78246477839209
O          -0.65860081935175    2.87515775412281   -0.60620159738840
H          -0.43037635581588    3.80369587403240   -0.67223799848945
H          -0.27686586700227    2.54990476256551    0.23064741626000
O          -0.20572571116881   -0.80184003572790   -3.20178295234528
H           0.18812767785754    0.09184293762033   -3.01969270116192
H           0.55419065887745   -1.38885413183681   -3.30572121586328
O           0.96053055126509    1.28323617562549   -2.13043373306736
H           1.37835934900317    0.81488630008621   -1.39292504270999
H           0.30136951443292    1.87889824102595   -1.72191369167626
O          -0.25760339106547   -1.86011308902315    2.64576863217673
H          -0.80034317731219   -2.61923299959330    2.86938197949824
H          -0.88545263042937   -1.14331145109802    2.30158089255891
O           0.54328275054455    1.74797819634227    1.57287798794322
H           0.91425964247571    0.98686303040263    1.07697854826849
H           1.24019414440073    2.03934378571872    2.16280375599268
N          -1.81078427009414   -0.04291976058394    1.57477833048918
H          -1.71562934014453   -0.31025066809215    0.60037850308263
H          -1.28119727874872    0.81357011856920    1.70341279015829
H          -2.78550231446953    0.15492647367525    1.75971748945544
