    26
        -50.47547318  Gyration_radius:  2.37914880357 Dipole_moment: 2.864
 S          -0.45457106258038    1.30341849475514    0.53381376674976
O           0.27309640043477    1.37139904509337    1.77848092149505
O          -1.43368078633138    0.22559485796682    0.52234617541421
O           0.44876688612168    1.19916103747866   -0.62111972245311
O          -1.24088342553353    2.64841633478076    0.36679658545700
H          -1.67166410692013    2.55323871221304   -0.49582431166923
H           0.66563988923026   -0.36937347181429   -1.28416952664007
O          -2.02094683826650   -1.02965043487040   -1.77191892076173
H          -1.98402287075994   -0.66583003249352   -0.86741241077605
H          -2.16568386865498   -0.25981979630975   -2.33184377596693
O           0.62194527222852   -1.32163248654199   -1.50258350827016
H          -0.32871995637424   -1.46319644992030   -1.71093755246613
H           1.08969541130703   -1.87281634787173   -0.11632490062093
O          -1.51274276250600    1.83432112858653   -2.21963589121113
H          -1.25954853067546    2.43234732383288   -2.92587443321597
H          -0.68152261441844    1.53868704671189   -1.78865214234608
O          -0.49995056696218   -1.22868302673339    2.49121436703471
H          -0.14007852575345   -0.48367274600151    2.98494718315732
H          -1.03839185591712   -0.79536903409192    1.79301155400099
O           2.62664611180751    0.43766311418740    1.05798380154802
H           2.64374191446817    0.78643817383835    0.16170727078642
H           1.84143731355211    0.87027372387403    1.46254421718017
N           1.47464823887811   -1.95140522736473    0.88145570665310
H           2.10327965929321   -1.11079866670285    1.00415706842654
H           1.96831343543583   -2.82399541382503    1.03096028557870
H           0.67519722891743   -1.82471585881258    1.56687820298261
