    26
        -50.46106588  Gyration_radius:  2.46740088628 Dipole_moment: 4.060
 S           1.50353516966254    1.03376523134852   -0.05085988286576
O           2.30132636773588    0.04402086076365    0.61733857019979
O           0.15119790238408    1.11495862455252    0.54083734509951
O           1.38838250336865    0.82674338489298   -1.49377015149574
O           2.17010243594844    2.42276281492304    0.17973889161676
H           1.67475158597179    3.01051237621540   -0.42479800965758
H           0.50104047841483   -0.53030391710905   -2.02839704080970
O           0.89206010226692   -2.20238881206286    0.27109862231571
H           1.62122089767636   -1.55457266893868    0.29258289998419
H           0.39854159665850   -1.99658588993340    1.08044978056649
O          -0.03444077951876   -0.72772582734247    2.43229452857914
H           0.05059391885535    0.02765520035885    1.80819364867295
H           0.78356813348829   -0.72759321750675    2.93337555475128
O          -0.15700006206988   -1.25690028740568   -1.96352849272081
H           0.19960803978073   -1.82644505354010   -1.23933822752735
H          -1.21084867046229   -0.51944805416459   -1.32535273295151
O           0.77910013961406    3.33490921250605   -1.87326681416723
H           1.25695757761117    3.73023243045513   -2.60573388882756
H           0.87112312143339    2.36426036555205   -1.97077346928944
O          -1.79851223201370    0.08386230982306   -0.66765631318873
H          -1.07611727302077    0.63859754394564   -0.19866537941459
H          -2.16163487078744   -0.57553079090312    0.08358824931100
N          -2.49906041429116   -1.52060123076815    1.19069492851209
H          -1.77716016668705   -1.33000196786355    1.88364844021388
H          -2.42433246265969   -2.49043622499117    0.91047680696735
H          -3.40400304933731   -1.37374639283904    1.61782215611635
