    26
        -50.47166715  Gyration_radius:  2.38833041402 Dipole_moment: 3.163
 S          -1.28806690274518    0.60100787493078   -0.01328237582272
O          -0.90108569798405   -0.16705801413516    1.16532285595977
O          -1.98149216075921   -0.22761489813991   -0.98733395873962
O          -0.12627083387023    1.25350677544417   -0.62358527261079
O          -2.26506925657466    1.71399334705109    0.44942722333176
H          -1.67936855253651    2.32563768372285    0.96200654139613
H           1.32954185878337    0.51000143778854   -0.11592797865884
O           0.95878281798077    0.79781656447467    2.72549541962840
H           0.25351152876570    0.36524458387295    2.18944443939035
H           0.83646839859898    0.49248144951490    3.62554131205607
O           1.35795966652354   -2.16712618892542   -1.21887067152240
H           0.62943184092908   -2.53102446350346   -0.66278673210493
H           0.63304186867925   -1.28633981450807   -2.12607637845200
O          -0.85004053300664   -2.63779907734277    0.18892133021901
H          -1.64697340653276   -2.60748693737894   -0.34568416164878
H          -0.86012027866981   -1.79686799883917    0.68802565221474
O           2.09144480660636   -0.02083433080949    0.18454013464117
H           2.10364531906802    0.09044571816869    1.14212121754355
H           1.81450983779701   -1.50850838976334   -0.64676337837347
O          -0.21563391708650    2.96330355181564    1.47969272073857
H           0.25409897369198    2.39238266665267    2.11471283381775
H           0.15694753731633    2.72998939844667    0.61800328706374
N           0.00596810217225   -0.51635737801457   -2.63129459293174
H           0.41427142334505    0.39896074865417   -2.42563473767954
H          -0.92034621529646   -0.49333659099211   -2.10887771207253
H          -0.10515619519408   -0.67441771816637   -3.62713702730428
