    26
        -50.46187368  Gyration_radius:  2.54541635338 Dipole_moment: 4.294
 S          -0.80306529542904    1.16549402328053    1.17896725321356
O          -1.31743668749469    1.87961448521906    2.31087942535153
O           0.22297643042502    0.18318404426300    1.53720391589160
O          -0.05192031878425    2.20585004929082    0.22478178353032
O          -1.81301632533789    0.57717159698802    0.30548128008013
H          -1.28310347707044    0.64312808002367   -1.12265253994913
H           0.56848583237245    2.63497435976682    0.84933122960832
O          -1.24582095968839   -2.01454952448177    1.12273497938473
H          -0.59952919018951   -1.33230952009651    1.38594327574680
H          -2.03083573374275   -1.50405269516155    0.89886027585321
O           1.17216325350419    2.76290731481593    2.48855521387108
H           0.24294028459332    2.62090389906619    2.75005644367392
H           1.62051105465572    1.93707119452003    2.69005640687044
O           0.90545001133829   -1.11087960322714   -2.31416255523996
H           0.41980110491335   -1.90848679393887   -2.00074357610390
H           1.51435280921856   -0.87094206769152   -1.57926712195614
O           2.19481056774517   -0.36939473028103   -0.10403461342375
H           2.74013359445909   -0.98990116865424    0.38207324329621
H           1.45953529594150   -0.12277754916041    0.50303044638278
O          -0.47280020613854   -3.08092408382229   -1.18999566413460
H          -0.77934726429149   -2.71499021098786   -0.32501416634860
H          -0.15694613643772   -3.96648624919036   -1.00823950078440
N          -0.77068161191183    0.81275122280295   -2.04770274657271
H          -0.23709634021706    1.66803086197832   -1.89696029711557
H          -1.42980192871328    0.92133046296792   -2.81161429406656
H          -0.06975878386686   -0.02671736825617   -2.22756811702554
