    26
        -50.45063068  Gyration_radius:  2.50143150975 Dipole_moment: 1.721
 S          -1.25035428587705   -0.12510971470786    0.17057938050088
O          -1.14315481424598   -0.84990427268152    1.40139818336159
O          -0.17477268795486   -0.35359820155430   -0.75790875178499
O          -1.36898469738540    1.38611628820127    0.45139173121060
O          -2.59230053305971   -0.43915129290340   -0.48910231813410
H          -2.65621365176537    0.19279942060851   -1.27887668526699
H          -0.45548950404362    1.83836926381641    0.46107483476276
O           0.10218465780933   -3.31320547744844    1.50805102281524
H          -0.14282651077115   -3.68469355682238    2.35743592177088
H          -0.38716541141864   -2.47878244777828    1.43082827193736
O          -2.49121528283878    1.18178784949352   -2.46329376008422
H          -2.53313669647712    0.71501951311045   -3.30154151733395
H          -1.58471981679607    1.57454334593442   -2.41435328293033
O           0.07548117680201    1.82738825768569   -2.23877567334081
H           0.46017869573094    2.45662795786506   -1.62157328519697
H           0.18325808478808    0.95739495957977   -1.80937271830697
O           1.39419058830282    0.23565138395053    1.91353661813861
H           0.51277717053578   -0.14891297460605    2.00689780192361
H           1.89723886149942   -0.44252380521103    1.38163488210980
O           0.96748614702014    2.36246507855851    0.55226212439415
H           1.02227229402913    3.09542820202372    1.16991334049653
H           1.28651814632446    1.54751358018348    1.06221530127670
N           2.27014726812148   -1.68361697013993    0.31141091363838
H           1.65370848843138   -1.36905517596701   -0.43150129822366
H           1.81482753795279   -2.49029732202713    0.73103504516354
H           3.14006478526915   -1.99225385914925   -0.10336611288688
