    26
        -50.45296255  Gyration_radius:  2.46465802212 Dipole_moment: 3.802
 S          -1.13580000082388    0.48788733523643   -1.60692022248315
O          -0.14218702645739    1.04058573600247   -0.69946725072977
O          -2.31725422573742    1.25517734638183   -1.76197969460874
O          -1.48660102157734   -0.93312135260083   -1.12589721164047
O          -0.48801213979967    0.27832111806790   -2.98256935314003
H           0.29360777613841   -0.36764195658352   -2.93979926992490
H          -0.87449283884310   -1.31139124607056   -0.40404122694539
O          -0.06250774293677   -1.92888452382286    0.73735981832971
H          -0.30342551329635   -1.33925280845243    1.54197014747932
H          -0.42925714911666   -2.79563557209438    0.92083070894766
O          -2.28715299335498    1.13588508501541    1.03367284402463
H          -3.03444441935274    1.22580193394452    0.43726746820947
H          -1.51154988853437    1.30357402874450    0.48392080532286
O           1.54616058982451   -1.25932688935268   -2.80566416654841
H           2.22854452280198   -0.95423568999544   -3.40713951792312
H           1.86149261994723   -1.05233707594959   -1.88217927055805
O          -0.68530629957257   -0.37377022539452    2.65193093227702
H          -1.46037263377430    0.09081587704564    2.29585888189995
H           0.04073924305021    0.29552822147003    2.59933341531353
O           2.02389996669239   -0.50018292538578   -0.35757765406318
H           1.60394025621540   -1.18286345135217    0.18473037014402
H           1.34085089735643    0.19420678899019   -0.43413189222711
N           1.17022665242269    1.49152179444448    2.02035457326165
H           0.76236375241959    1.68729523491149    1.11156449981777
H           2.10933500409561    1.14694533475973    1.86190697548455
H           1.23720263203143    2.36509786200311    2.52666529047473
