    26
        -50.45060054  Gyration_radius:  2.5304566198 Dipole_moment: 4.287
 S           0.71945599468117   -0.64767617506086    1.22959719272831
O           0.47545121620575   -1.57644698645692    0.13889837847486
O          -0.47884665083566   -0.17828053032837    1.86891628322703
O           1.54278954115001    0.49341180333137    0.74891460027084
O           1.60321085460456   -1.40827674868767    2.26426265394655
H           1.81874917137667   -0.70262679195467    2.90219826841346
H           1.28189458207092    1.04524316750561   -0.55757071563728
O          -1.25239384642922    2.30851821773569   -1.24622390330273
H          -1.24119225966809    3.12571136187756   -0.74453362596822
H          -1.77668737954562    1.63363352773638   -0.67220907011169
O           1.02423172211889    1.35108169027403   -1.52531408072328
H           0.04566599966196    1.78772778804300   -1.44494507901852
H           0.92109353926008    0.46990120972790   -2.02847524277296
O           0.81127466856373   -1.04257326944395   -2.37898767550132
H           1.62165771069077   -1.47003279073302   -2.66222269336991
H           0.65384150962485   -1.33948341658539   -1.44491892341117
O          -2.43121218547957    0.64263139689104    0.25201513484973
H          -2.55118010758905   -0.19634565901316   -0.25241486778696
H          -1.79348648437939    0.40644283029485    0.95660822319573
O           2.24711980821101    0.95800336569079    3.25249652129657
H           3.18079977191984    1.17493424837860    3.30682517757379
H           1.98302191329208    1.08171909331974    2.32182692065407
N          -2.22249419681356   -1.74486490611368   -0.99628302906827
H          -1.34749726962640   -1.89194328326709   -0.49718243719314
H          -2.00978092150045   -1.74591802847040   -1.98615908084485
H          -2.82548670153343   -2.53449113463187   -0.80511892992405
