    26
        -50.45560911  Gyration_radius:  2.4387550771 Dipole_moment: 0.990
 S          -0.95333929883593    0.61269748227021   -0.61668867833996
O          -2.18893032647739    0.67962167462990    0.11996034002880
O          -0.66503544501502   -0.69366092999610   -1.16250230865402
O           0.21014220311445    1.01924284041450    0.31372204299592
O          -0.91366754793371    1.65504184257714   -1.70346337552383
H          -0.13075918044913    1.33944430340191   -2.36830155869491
H           0.22039074483151    0.38055629926945    1.11831349407844
O           1.63718674580960   -1.66186376995916   -0.04295696211740
H           1.45959102607844   -1.58561067478815    0.89899570798131
H           0.80549008673584   -1.44357821536688   -0.49478804188317
O           0.90164014967639    0.68837229501600   -3.06907076158115
H           0.59149341933287   -0.22266765573447   -3.02275095562964
H           1.70443166440689    0.73470851177741   -2.43101809396592
O          -0.02318054710304   -0.62292276915599    2.22991396227382
H          -0.55833618891461   -0.02544209672842    2.78794621438031
H          -0.68395756006434   -1.26377856667146    1.87317071419187
O          -2.02026727283119    1.07522924278666    2.82574617149165
H          -2.86581415942701    0.84789607430601    3.21686686186570
H          -2.16466118422604    1.10843813686232    1.86411807010402
O          -1.99258505888230   -1.90189418664142    0.96465754829384
H          -1.65888923333336   -2.31951866136921    0.16546234122621
H          -2.34756903901329   -1.04695918422417    0.67137607463099
N           2.76916032426395    0.68738798159654   -1.26350886248408
H           3.75567738618339    0.79308044477993   -1.46025639336529
H           2.61779302910993   -0.22389398138789   -0.82660174317328
H           2.49399526297994    1.39007357233353   -0.58834180813615
