    26
        -50.44940273  Gyration_radius:  2.48480610232 Dipole_moment: 3.136
 S          -1.45650204982228   -1.00780789764155   -0.01094089493069
O          -1.91565900735570   -1.64910484537933    1.17756545829432
O          -0.16231086982506   -1.46783821875562   -0.48470803564085
O          -1.34893095254133    0.52012953015047    0.24110818643812
O          -2.46946197541332   -1.11666965301157   -1.13139550599014
H          -1.97576959321451   -0.89214496658320   -2.02390391778067
H          -1.11708667910797    0.65000366480050    1.20729452841101
O           0.87539356999440   -1.62375254648299    1.99163212308386
H           0.49465555612268   -2.42779880835737    2.35297234155245
H           0.64268894972205   -1.63437779554631    1.04371034143299
O          -1.04437791192498   -0.61194132561925   -3.12109924127850
H          -0.26099785763477   -1.08287620422106   -2.81694090028045
H          -0.82199645274742    0.35966154559209   -3.05492415661427
O          -0.16559723875584    1.82664433543528   -2.75382634713500
H           0.34708699703963    2.21691398394170   -3.46378524623184
H           0.48929556683527    1.50205127913397   -2.08382252448344
O          -0.75541642836755    0.37648283123331    2.74222209731970
H          -0.07276687606347   -0.32036736829831    2.60513538461757
H          -1.55077715842091   -0.09806331588831    3.00198581826380
O           1.51841316616420    0.60136463573014   -1.14797402221446
H           1.00220970110200   -0.19325807384775   -0.94405480314471
H           1.74652473366349    0.97868072510307   -0.26971820594167
N           1.98139942734283    1.27330644186037    1.46311737322752
H           2.08165984738311    0.33257303870761    1.82762279542261
H           1.15488833039747    1.67650342667715    1.88762696556502
H           2.78343520538777    1.81168554131037    1.76510037800745
