    26
        -50.47305155  Gyration_radius:  2.38091119998 Dipole_moment: 5.302
 S          -0.72798646746555   -1.27363980410202   -0.41557358155775
O           0.68367993328996   -0.89445218907269   -0.20202186426073
O          -1.14582901933551   -0.99914629386972   -1.76462279800638
O          -1.56308704247214   -0.56343718356554    0.56833878323837
O          -0.84051836835984   -2.78267578126151   -0.14198037130978
H          -0.26300283123412   -2.92366163669122    0.66310417584311
H          -1.54052229633342    0.96260709267954    0.28002810362315
O           0.83128566162098   -2.77889623744703    1.81856720027457
H           1.49371155440197   -2.34672342831003    1.26924266616765
H           0.47810602214759   -2.06897958454092    2.40291304792087
O          -0.81470416010869    1.51924851371942   -2.50140177122057
H          -1.10985781814896    0.58492154675630   -2.43439193313413
H           0.16037011714915    1.44025510324410   -2.53372984192717
O           1.70918458072402    0.65217389051982   -2.10669828269078
H           1.35700916261721    0.00797437735781   -1.45447951188587
H           2.01699262508259    0.13001340638727   -2.84901145743422
O          -0.16681487824957   -0.51649592008145    2.83191544402240
H           0.42645062821779    0.21974265987761    2.65310283782803
H          -0.80899797278387   -0.53000705458812    2.09343770098351
O           1.23049766146031    1.38792585935971    0.96783513823221
H           1.98780318902568    1.72145787444587    0.48129743930131
H           1.06330026885779    0.48771428606460    0.59303561170729
N          -1.21643234225354    1.94436473199757    0.02404914846224
H          -1.10691408625572    1.93334056104437   -1.05154176277718
H          -0.27155130839635    2.03095471083623    0.46018375520863
H          -1.86217280327539    2.65542046911275    0.34840210348303
