    26
        -50.46076749  Gyration_radius:  2.5843127275 Dipole_moment: 4.705
 S          -0.44566523563034   -1.21626144047409    0.60541926169591
O          -1.58253631877586   -1.64063704854189    1.37991025883714
O           0.39109730492126   -0.24816135772044    1.30733843807452
O          -0.96865037086984   -0.48485860398235   -0.69164886874452
O           0.35013166357304   -2.32185975685894    0.06652115632972
H           0.68320185467802   -2.01609354040166   -1.27142305566610
H          -1.51636438153175    0.32228321822275   -0.38997340057652
O           2.27134418257616    0.98953461290294   -0.04730596053974
H           1.91967975584758    1.87734743663590    0.05766921832309
H           1.66217383116949    0.41615959111557    0.47087618108713
O          -2.23124912245831    1.54963185506697    0.14749160528351
H          -1.48414128002868    2.07251003899694    0.50516509294218
H          -2.67959669518144    1.19692429509397    0.94791747770340
O           3.06161239226480   -0.21987092900711   -2.22876639035742
H           2.79574733335317    0.33855242794508   -1.45337518976606
H           3.86593239707209   -0.66538951865990   -1.95634643319640
O          -0.06630284973901    2.34830330620241    1.53346717363503
H          -0.35065618817290    2.56357305306272    2.42349329777098
H           0.12579369936797    1.38414245455805    1.54538901481688
O          -2.96497611459723    0.32697679321536    2.40004428133554
H          -2.41025512946594   -0.44206331368730    2.12443722739535
H          -3.83204317941427   -0.03542715878097    2.58840048698376
N           0.82673993717228   -1.63242151030862   -2.30607849476081
H           0.05475785418560   -0.97191623024997   -2.41059971318723
H           0.77320245708294   -2.37709337066221   -2.99277400903093
H           1.75102220259374   -1.11388529368982   -2.35524864638814
