    26
        -50.44860060  Gyration_radius:  2.40146689558 Dipole_moment: 1.563
 S           1.67145191903153    0.10911283769923    0.55537051566693
O           1.20514602157341    0.75127522935997   -0.66568413515050
O           2.63309257738719   -0.92000497566345    0.33654411693469
O           0.42930030164221   -0.48285119062703    1.27750846112242
O           2.14900337980881    1.16373254809575    1.52030837795402
H           1.43309574216805    1.95235979015244    1.43689401478884
H           0.18818007304171   -1.33956272617184    0.82432012872419
O          -2.27916459160012   -1.31260283550185    0.34667028378288
H          -1.78475040774053   -2.12533980203687    0.21930746556134
H          -2.06322992010719   -0.74718328638257   -0.41294554165427
O          -1.29373822219434    0.37646464424044   -1.64780203445862
H          -0.42553730337507    0.60725705530745   -1.27257319242431
H          -1.10895499716475   -0.09300191567428   -2.46425437739836
O           1.40367887866005   -1.42606523123987   -2.21277460394581
H           2.32049973835116   -1.70738170386400   -2.16100156903556
H           1.38727846155246   -0.54516675958963   -1.79392137516322
O           0.27085137876108   -2.65649120429440   -0.13420381109802
H           0.59423767850240   -2.29684616387886   -0.99571085850298
H           1.01103717847681   -3.13998304482732    0.24063445049322
O           0.41397342829924    2.87343726932558    1.08302540851543
H          -0.48804689442371    2.38621382962398    1.19229938703071
H           0.54884436056391    2.94770842734425    0.13338486968287
N          -1.83282082721651    1.57431360612812    1.17075060484125
H          -2.57708251487259    1.89053268704247    1.77951793248361
H          -1.61229352516491    0.61411844797905    1.42087860035076
H          -2.19405191404904    1.54595445739462    0.22345690090263
