    26
        -50.45475540  Gyration_radius:  2.40902100525 Dipole_moment: 4.997
 S          -1.11543059650312   -0.00877314159460   -1.29632194784904
O           0.02677357639352   -0.85777567039604   -0.99213949805630
O          -1.37084219100447    0.14834347026499   -2.69072480173377
O          -0.93441932364205    1.32514815729923   -0.59344309174446
O          -2.35775282573433   -0.60662400033639   -0.61642791692699
H          -2.15042190704359   -0.83388491697566    0.33874264383197
H           0.06477257253162    1.76975639263168   -0.81665152472280
O          -1.81584696144644   -1.38069025394936    1.79810132534553
H          -0.96564780306616   -1.87075755903208    1.63324697652796
H          -2.47706205069280   -2.04554863320981    2.00273965531731
O           1.33764106162599    2.11949443315131   -1.07125130585716
H           1.80905430111377    1.53921995260838   -0.41116313033793
H           1.47124985669093    1.69773073745316   -1.95548159924896
O           1.22763486398317    0.55859595118978   -3.20003191155345
H           0.26027147895102    0.45821815336362   -3.25947467301739
H           1.56241598617549   -0.30950384793760   -2.96163723979512
O           0.43084146246671   -2.52310897768357    1.06849414211482
H           1.23444501264378   -2.13734681831925    1.43075863300656
H           0.32661025237387   -2.12646415715296    0.18331999616493
O           1.93416364801177    0.21245650732994    0.61938869788643
H           1.35295378735141    0.52208422402556    1.35298041556632
H           1.34211708666276   -0.28090923588203    0.02677508391975
N          -0.05268680830486    1.06147461180107    2.26846800285011
H          -0.66512936227047    0.31268787200736    2.57127870648274
H          -0.54043813350118    1.55424312640358    1.52711927028785
H           0.06473301578720    1.70193365254442    3.04333511141604
