    26
        -50.44281213  Gyration_radius:  2.46092576102 Dipole_moment: 3.792
 S           0.99395967301665   -0.20392049482796   -0.35568418027382
O           0.96230179068416   -0.62792241005456   -1.73097009045089
O           1.89321974566880   -0.94676541537855    0.47403113445058
O          -0.44878607532114   -0.28733396323038    0.20307163479724
O           1.30209265663875    1.28731501497553   -0.30683082033323
H           0.71126028209232    1.80480528503202    0.36653757362001
H          -0.85057569763561   -1.13670914259508   -0.20230954421846
O           1.04074436493288   -3.46962235468219    0.19420142049620
H           1.44253038045812   -2.61170175505842    0.42977521840201
H           1.74078025997559   -3.99619626508589   -0.19641421463036
O          -2.24363040857220    1.91571586678953   -0.36739645090290
H          -1.78129196075736    1.72459383259473   -1.21029822143863
H          -2.52441609703121    1.06155403235598   -0.03033008100418
O          -1.07901435144961   -2.40963774453726   -1.00510623414604
H          -0.65794232267192   -2.15252181740719   -1.83381268433211
H          -0.43734281937819   -3.00488998632309   -0.55457528381326
O          -0.25299062068353    2.60965027884870    1.15561847434621
H          -1.09194605265950    2.39382592643039    0.65030817390502
H          -0.08928879418758    3.54847744802598    1.03795146073484
O          -0.73937264895851    1.25993594597007   -2.52235716641445
H          -0.11172561147166    0.53815112440113   -2.33067307671390
H          -0.23516875642769    1.94008682625600   -2.97240612838522
N           0.73533918458155    0.21703523524884    3.03143154587079
H           0.40479027341365    1.10855995559517    2.68191151884280
H          -0.06365018615244   -0.40545982191331    3.04971403684624
H           1.38012378195832   -0.15702559141813    2.34461199474938
