    26
        -50.45060347  Gyration_radius:  2.49974505812 Dipole_moment: 5.773
 S           0.36979575866461   -1.62887227285677    0.04475883814344
O           0.87685259650233   -0.35386363851723    0.50783067180780
O           1.18861153989244   -2.28187069937094   -0.92147028330962
O          -1.04786407272396   -1.42107302117159   -0.51349008200317
O           0.17431817141560   -2.56280118808049    1.24047534289889
H          -0.51453587770781   -2.16088816562738    1.87526690022047
H          -1.35840542118598   -0.45239824617796   -0.48259509620040
O           2.48253218610378    1.23843729463335   -0.93408048386628
H           3.29897148982077    1.36467838790347   -0.44954115632414
H           1.93255236212127    0.63695449127755   -0.39396964424102
O          -1.86607482439276    0.98453118738230   -0.62469204235994
H          -1.13080535397657    1.37582312445485   -1.19398184536328
H          -2.63733027803293    0.93736288574398   -1.19398306796995
O           0.03122281406875    1.79185080181664   -2.16889467632564
H           0.83239017132635    2.03661911146702   -1.68732718883446
H           0.29287558079422    0.96538926909436   -2.63025149200674
O          -1.46308940805152   -1.47841314998377    2.85388146868128
H          -1.35460060028124   -0.49109401336854    2.66954366593440
H          -1.14897460975761   -1.63179639815575    3.74738551918869
O           1.24579920699015   -0.47008981070784   -2.93542471878037
H           2.07049768434017   -0.03873187583164   -2.68297257368859
H           1.17851202156221   -1.24558187984374   -2.35407045333094
N          -0.95886377520093    1.01095670076484    2.20856383053317
H          -0.72991773288142    1.78916233492222    2.81345051110108
H          -1.63787419858188    1.32980675811724    1.52659512576127
H          -0.12659543081847    0.75590201211616    1.67899292031331
