    26
        -50.45060337  Gyration_radius:  2.49996388171 Dipole_moment: 5.778
 S          -0.86431704982747   -1.40246625090258   -0.27823873242608
O           0.48538397559880   -0.95666661335362   -0.00090652859501
O          -1.05088272519227   -1.97318233554250   -1.57054393012710
O          -1.82444739829569   -0.21836382022704   -0.07668251475460
O          -1.29068367997362   -2.42186462481615    0.77953007108273
H          -1.28806430973815   -1.97849416219457    1.69736065313756
H          -1.35374899469210    0.64637880047701    0.18106145120764
O           2.23245872778905   -0.18696726297530   -1.88453682822570
H           1.60877876661000   -0.50884812054486   -1.20381920742332
H           3.00242617002496   -0.75429350415905   -1.83403509426320
O          -0.74126283743363    2.02848600094879    0.42111081246323
H          -1.45091118474921    2.65969412006434    0.28282854497144
H          -0.14823182057556    2.10307732301104   -0.39163920170301
O          -0.34500424996678    0.06957017784003   -3.20505578850041
H           0.57329583617013   -0.19492702504305   -3.33433671865969
H          -0.75688140751134   -0.67212879520735   -2.73158395321597
O          -1.16509088731313   -1.31490683215542    3.06391474452690
H          -0.80330510676520   -1.95027239513672    3.68519201852313
H          -0.46631494808629   -0.59631961294987    2.93792308808785
O           0.62823284388913    2.10477379846584   -1.75950822052152
H           0.09927950270337    1.53617591534152   -2.36055896887288
H           1.46854470506343    1.63220090988089   -1.69460916952730
N           0.69806063261667    0.43278326911879    2.47892081102554
H           0.92208386312376   -0.02832313224598    1.59838044545968
H           1.56152307014843    0.62771691058544    2.96921326355905
H           0.26907849634695    1.31716724169574    2.23061896278346
