    26
        -50.45042688  Gyration_radius:  2.49568228845 Dipole_moment: 1.835
 S          -0.34631737608019    0.60062075428823   -1.25241125889652
O          -0.37959572847607    1.08663880136016    0.11159008418432
O          -1.19799070837420    1.33389759166652   -2.13860704982180
O          -0.72655449933543   -0.89770609012508   -1.24966793232093
O           1.07631273731532    0.59492027603103   -1.76607346770406
H           1.61338607649568   -0.28302891801511   -1.44879425993600
H          -1.64277373430808   -0.97866217774528   -0.83775368836095
O          -3.07102495126824   -0.86785320685576   -0.22503439544378
H          -3.19481997347958    0.11675655936153   -0.15164761290938
H          -3.73761332196402   -1.17614798738834   -0.84322022792470
O           2.15061982343899    1.75687428713496    0.77130973652433
H           1.19710358668928    1.60510476135618    0.64282893991424
H           2.48644446924172    2.03990574088751   -0.08126660272266
O           2.60747648704014   -0.83758119130751    1.45433432885138
H           1.70185857492201   -1.07587898391149    1.77256369018253
H           2.60354835123334    0.13777183335259    1.40041401211169
O          -3.07365455983952    1.75637239126784   -0.28637972209934
H          -2.54262437124137    1.79360093752705   -1.10424869551022
H          -2.46583436418750    2.02628096647878    0.40893667638841
O           2.38169579990299   -1.36218402826392   -1.01525879666419
H           2.50296632198706   -1.22372336955509    0.00092748748310
H           3.25651713952140   -1.30289230051327   -1.40641353431142
N          -0.02731214586648   -1.22669831072768    1.85563733361364
H          -0.28129897888639   -0.36916045932524    1.37105624895132
H          -0.53455398960306   -1.25052074095998    2.73102749251594
H          -0.35596066483281   -1.99670713591521    1.28615125393449
