    26
        -50.46234816  Gyration_radius:  2.39801263942 Dipole_moment: 7.857
 S           0.03502744377572   -0.03283323233954   -0.81543869727355
O          -0.24722259859541   -0.08259248649618    0.62900998338309
O           0.34609402772459    1.39816978258486   -1.23243695404095
O           1.21054536932763   -0.84445405661222   -1.12786499652744
O          -1.13799696580642   -0.50971926573206   -1.55337302339055
O           2.81906214698658    0.98749799200757    0.11663470241258
H           2.33973629685419    0.25031834350434   -0.29595548997567
H           2.83504854157136    1.68009755144812   -0.54802006760483
O           1.01645308446286    1.85469721031756    2.03228098124376
H           0.51428538416340    1.05941450025515    1.79088645382483
H           1.86126209602966    1.73343731763492    1.56609031150990
O          -0.53476525616692   -2.62523633824594    1.28460672833243
H          -0.48790699122670   -1.65181330630061    1.13577914531011
H           0.11695491714620   -2.81767495220414    1.96160367386210
O          -2.53804378071888    1.26213505645519    0.30116847833533
H          -2.74159614104692    0.96788140650501   -0.59060218721477
H          -1.82356930765312    0.67193301972706    0.59616245848014
O          -0.56413669564326    3.10545540523097    0.32514002847983
H          -0.05188619787581    2.17378532348229   -0.61338508956979
H          -1.44583502190041    2.70626436765305    0.47065178156871
H          -0.00155533412382    2.85051459881393    1.10253391493878
N          -0.31227772314484   -2.89451948625533   -1.32928946782103
H           0.61290948465085   -2.40256371658367   -1.39518612171216
H          -0.46553804548404   -3.09268351599509   -0.30806662253691
H          -0.93418330098232   -2.04881624358462   -1.56535572439937
H          -0.42086542232257   -3.69869526526961   -1.93757418961379
