    26
        -50.44759119  Gyration_radius:  2.48427750201 Dipole_moment: 3.148
 S          -0.54036765768871    1.70246140184120   -0.60003073334652
O          -0.80530508217811    2.39789264651668   -1.82063300554080
O           0.84105125753452    1.70604971527277   -0.19432867933729
O          -1.03065469095743    0.23058587043963   -0.70649943182586
O          -1.43913959514725    2.22319762945400    0.51765672271845
H          -1.42372533641510    1.53122665562219    1.26685146942838
H          -0.45220931168854   -0.29496670210967   -1.32484790204305
O          -1.70216316242751   -1.95656551865780    1.32944382887603
H          -0.88618395555466   -2.10269906356380    0.78365183650732
H          -1.67991446844441   -2.63936781032643    2.00285702113269
O           0.63976789973291   -2.32581917216513    0.17524278721545
H           0.75680195817945   -2.01847026299905   -0.72914182896989
H           1.07741650028146   -1.65095271781408    0.75215909345616
O           0.56591200775138   -0.92951738515385   -2.39471050849900
H           0.11950164258714   -1.23901655382751   -3.18581618918371
H           1.05290117268877   -0.09830151322102   -2.64762925166363
O          -1.50778062635815    0.44709631568225    2.34019105664896
H          -2.36323225586641    0.58215638482163    2.75464724836019
H          -1.56430062124945   -0.44383193568540    1.88306559485446
O           1.52462091886500    1.46880033699499   -2.82137527129158
H           1.88741032212180    1.64887034440335   -1.94419928580171
H           0.69142825169786    1.96897125930059   -2.82657123200093
N           1.52340296301844   -0.30332629993314    1.72955412252910
H           1.41194750567296    0.45716858571673    1.06064246939173
H           2.45002453565231   -0.22809663180682    2.12997079668874
H           0.85278979818406   -0.13354557880920    2.46984927169983
