    26
        -50.45270047  Gyration_radius:  2.49995613302 Dipole_moment: 2.281
 S          -0.67400596870984   -0.53525307576781    1.46373432369141
O           0.12999029276818   -0.30327395203003    2.62264133514401
O          -0.04799303525099   -1.40169106444484    0.48671467054501
O          -1.04255474266770    0.80171062413994    0.78429746939520
O          -2.03524179183800   -1.08295669335923    1.84977179118778
H          -2.64877130538648   -0.97331505994169    1.02175542333159
H          -0.22920204410509    1.35570312683925    0.55437216674741
O          -1.37278049301085   -0.98701468726053   -1.81118538963493
H          -0.79978632028188   -1.29737851663085   -1.08979329730613
H          -0.92717007749470   -0.17028766128677   -2.13677695843533
O           2.62203431031670   -1.44254180091108    0.15149888845546
H           1.64710276215819   -1.48123421826372    0.18193292870875
H           2.93321077193905   -2.28895338563569    0.47681393959759
O          -3.41045925294655   -0.86185021075516   -0.24178649594316
H          -2.68581168056389   -0.82041868848268   -0.94154884227508
H          -3.89263376919733   -1.67607742780029   -0.40496633703856
O           1.04794234490805    2.19074453589037    0.29294478336451
H           1.72291620817088    1.66455356753080    0.83284022009028
H           0.96485064132019    3.04068510117019    0.73067053725697
O           2.50827399052476    0.70016132822057    1.78759770308660
H           2.77874349625532   -0.03279389878300    1.19777053624909
H           1.77652726668379    0.34063704936496    2.31957614527464
N           0.21287193767479    1.12859297957022   -2.48748868821872
H          -0.12884378199759    1.87106997374943   -3.08446237252068
H           1.01992436762663    0.71392257744676   -2.93711890131133
H           0.53086587312416    1.54725945737847   -1.61980557947154
