    26
        -50.45465796  Gyration_radius:  2.47324152518 Dipole_moment: 1.441
 S           0.17411139396658    1.00230796925054    0.82403050172206
O          -0.55276843352138    1.46176719088024   -0.34118996438308
O           1.57787158762988    1.30077435094115    0.79958074142677
O          -0.02771969259879   -0.51430856079542    0.95721257228433
O          -0.46722173231352    1.55352247982782    2.08554596849487
H          -1.48390625692816    1.54649114466482    1.90051129546017
H           0.42038293286438   -0.99758019678920    0.15608103454351
O           1.18758103267678   -1.47526367530815   -1.02640933083756
H           1.38557168957296   -0.66451582367375   -1.55059461391622
H           2.02803432029253   -1.63203509712532   -0.52454325042020
O          -3.33851024053349   -0.97888585038689    0.47472178053666
H          -2.71777046714053   -1.00592588327534   -0.28733584012464
H          -4.20731760811896   -1.18420637690949    0.12505975845105
O          -1.62577888101853   -0.70406374902914   -1.57827531842232
H          -1.25481580377284    0.13399697946483   -1.24962156047610
H          -0.88992267770163   -1.32212666955624   -1.63235047040073
O          -2.83001376992059    1.50292379441613    1.24081633781725
H          -3.07807662586998    0.55297748291792    1.10106321299194
H          -2.53365152652161    1.81978525147486    0.37883073116796
O           1.70937453886091    0.99341267117680   -1.90523851459655
H           1.91514814487430    1.26732756605034   -0.99692859111336
H           0.89520748887827    1.45543246006766   -2.12524250080602
N           3.27203041620289   -1.15814946940293    0.60773667417052
H           3.34818454278466   -1.69757934132133    1.46091658033716
H           2.88581756631875   -0.24856321472945    0.85323752117531
H           4.20815805104097   -1.00751542282076    0.25238525489341
