    26
        -50.47082674  Gyration_radius:  2.39761946795 Dipole_moment: 5.272
 S          -0.08939250434950   -0.29948336971549    1.27639567412968
O          -1.36425904251891    0.01037752465466    0.61174841928260
O           0.48387274684498    0.87019244397569    1.90296436042280
O           0.84503650522290   -0.87275507978251    0.29428193877480
O          -0.35865768087282   -1.36319725106919    2.35487655515754
H          -0.99580585346669   -2.00585072614229    1.91400200437855
H           1.15287485281765    0.27762314797596   -0.71411266653438
O           2.75159440161695    1.90127359525761    1.00454998675288
H           3.47683352913566    1.41268565332289    1.39672954469058
H           1.93762523899133    1.57342324848512    1.45312647684388
O          -1.11879545232117   -0.15192974778626   -2.05153471703845
H          -1.23967641726058   -0.11789330095738   -1.08117396479620
H          -1.88751479404539    0.28004295654531   -2.42687697512113
O          -0.38162409241989   -2.73825040524598   -1.19320782789946
H          -0.71741313188501   -2.10240806237365   -1.83965933146835
H           0.25038647763514   -2.22032746218135   -0.66200425956085
O          -0.76076854150415    2.48601989750111   -0.09051319672854
H          -1.16486356587549    1.64451027592238    0.21095204596081
H          -0.38484831979420    2.86897063479058    0.70738147318431
O          -2.03137574802392   -2.63969440858101    0.89558243225360
H          -2.40512934529324   -1.77781966511830    0.67460148895917
H          -1.49175876405168   -2.89960470294096    0.10952078806234
N           1.34445005092497    1.23788112430500   -1.13444918874977
H           2.12721607535724    1.62465364545971   -0.56044591147590
H           0.48633094379147    1.81988939964269   -0.92375552147503
H           1.53566244135604    1.18167063407187   -2.12897963800321
