    26
        -50.45040240  Gyration_radius:  2.49457232382 Dipole_moment: 2.058
 S          -0.86399128128704    0.79382356476460   -1.18432278208765
O          -2.14047283068805    1.11153888574055   -1.71751926953964
O          -0.46329227132267   -0.59947058332527   -1.30990815085576
O          -0.78989395439635    1.17529165485267    0.30474354199503
O           0.22167613768920    1.65030914812623   -1.85713982398106
H           0.85670093952500    2.07444028712846   -1.16510646779125
H          -0.26850875528629    0.45321244478141    0.80543407612998
O           1.85534766972013    2.58290656601862   -0.18154529666436
H           2.27641146964609    1.75207193739206    0.19371189725715
H           2.55706383251295    3.07579853413286   -0.61229075463943
O           0.37845631712065   -0.84736209496597    1.28473229747607
H           0.29134131281373   -1.28158539499914    0.42475132102954
H          -0.39911286310497   -1.18906495730505    1.83508626744683
O           2.82570315037915    0.29056063104449    0.54013589524635
H           2.76346910109470   -0.15168018149300   -0.33102480499646
H           2.16566092014072   -0.14270878666047    1.09795440835648
O          -2.94423314355768   -1.10348869669056   -0.23730129836176
H          -3.25760136604267   -0.27900049630479   -0.62440580147149
H          -2.14398830276046   -1.30690456110187   -0.73640334697323
O           2.14730749705364   -0.65046448129226   -1.90585367265044
H           2.25711817395529   -0.08436302301737   -2.67168132047772
H           1.18406529497575   -0.73117731137769   -1.77248297617397
N          -1.86270002040094   -1.60272692628462    2.40622947992343
H          -2.42981344609052   -1.46017731762090    1.56862946556954
H          -2.20870814927937   -0.97699970086400    3.12228683609364
H          -2.00800542241548   -2.55277917068727    2.72329029014092
