    26
        -50.46949750  Gyration_radius:  2.56263230787 Dipole_moment: 5.886
 S          -0.28239278493049    0.44569992732855    0.18938899864809
O          -1.48992814430136    0.85973903951050    0.85582910899839
O           0.55646243172668   -0.44323791113949    1.15151989361574
O          -0.56206985022336   -0.38455121799446   -0.99859953322663
O           0.61219332954618    1.54214981975425   -0.16596161860430
O          -2.14458856584633    0.09398254650915    3.31676003946082
H          -1.71025803911518    0.68222873017483    3.93566987543999
H          -1.98940729302891    0.47294287195219    2.42614388894902
O           2.89011299880163    0.21485487110638   -0.19285960086533
H           2.78734754951736   -0.42114394692214    0.52046230659842
H           2.14482869365354    0.84365096848982   -0.06037292012449
O           1.14699843056496    2.37715937561702   -2.61961749343238
H           0.81679923132115    2.21269002103184   -1.70784630274883
H           1.80292900945495    3.07197569072271   -2.53867247178994
O          -2.69929072740717   -1.58902481866571    0.05507608088562
H          -1.97689540937516   -1.20604263247490   -0.47594088338112
H          -3.17182368695388   -0.83006724827830    0.40930589051791
O          -1.09196334608775   -2.08169329182796    2.12583235281621
H          -0.07021241672112   -1.15195910347248    1.55987088005592
H          -1.51727171276348   -1.49330196464105    2.78143706236808
H          -1.74171201203807   -2.14061983023060    1.38765044237852
N           1.55837816244428   -0.24232478666138   -2.42760295882919
H           1.72570300373748   -0.93044104484342   -3.15275824864448
H           0.62212565867477   -0.39975923791369   -1.91147731931931
H           2.28753909585028   -0.23902591915332   -1.66769590869193
H           1.49639638344881    0.73611907205197   -2.79554156106729
