    26
        -50.45256359  Gyration_radius:  2.52904592295 Dipole_moment: 1.462
 S           1.07156521410133   -0.07966820264317    0.49694848800142
O           1.36432475217667   -0.74931023653956   -0.74637507962720
O           1.46167011189599   -0.81527454426514    1.66632287989839
O          -0.42776204827336    0.24274624101522    0.56155021059618
O           1.72540097418821    1.29579858600702    0.46237668315363
H           1.12895742625882    2.00203481085065    0.92153240617813
H          -1.00639338360667   -0.65005869635091    0.55826171523069
O          -1.65552785270009   -1.91527654476576    0.51077344455404
H          -1.34212860423810   -2.27849924025443   -0.35108406225058
H          -1.16987863840679   -2.43525061450227    1.19310466089670
O          -1.48568062549518    2.64592513918768   -0.51275453652944
H          -1.95201216457327    1.88779218486710   -0.15124813774477
H          -0.87779432595681    2.26449903732331   -1.20066588129225
O          -0.22850406399135   -2.72757873277452   -1.57652281424923
H           0.22875788285933   -3.54885071411100   -1.38385304438909
H           0.41715814551306   -2.01361147659230   -1.40476903050336
O           0.09666872254180   -3.02742406493749    2.16351434016534
H           0.71596392419821   -2.28111580248769    2.01284276151738
H          -0.00868367310654   -3.09511357477730    3.11416754610419
O           0.23500091822671    3.09527949803284    1.38025412613122
H           0.64967145807136    3.94194299574709    1.19859575886127
H          -0.50039306128241    2.98791559636339    0.70273256633179
N           0.21036554259063    1.45511193274843   -2.24397138353839
H           0.65949999671448    0.70119208665828   -1.73031808324771
H           0.94479352696965    2.05560171590791   -2.59828641016967
H          -0.25504012467160    1.04119259029969   -3.04312914409653
