    26
        -50.45356502  Gyration_radius:  2.46815161894 Dipole_moment: 2.844
 S           0.46379570855205    0.48902639548648   -1.63705197335541
O          -0.15544134530858   -0.40178953561281   -2.56480499824509
O           1.25954234418801   -0.18868471659214   -0.63103382006870
O          -0.58006405416535    1.36838203875796   -0.92919377575158
O           1.31926325272805    1.52211040210226   -2.36021972804012
H           1.52330735929742    2.24438666662664   -1.67202000386767
H          -1.26939593138100    0.82608819792761   -0.39637771130534
O           0.36584542534242   -2.09721425531927    1.04924295914408
H           0.88057325065989   -1.52985744122556    0.44777024548717
H          -0.36325580484787   -2.42870735050931    0.50631658653950
O           1.50106335045484    1.46983789314048    1.44267731792687
H           1.54975994809031    0.77359063346691    0.76166728172134
H           0.73865228789100    1.22928866950128    1.98612286439853
O          -2.13571464197631   -0.07520133141646    0.44110501879473
H          -1.69074398780447   -0.04224725688403    1.31281405186614
H          -2.00157418862726   -0.96925352521776    0.07985653663014
O          -0.52664955333527   -0.16181751773944    2.60513039427779
H          -0.10088895739717   -0.93418558506457    2.15226885272374
H          -0.67481814828820   -0.42052312335679    3.51535989490756
O           1.84693245056346    3.19472735277060   -0.51451661644040
H           1.62845440343709    2.68669588162218    0.30754750132777
H           2.79017725312967    3.37097789756778   -0.47567558525631
N          -1.57466789660590   -2.40204155832211   -1.07343093667214
H          -2.52955636876154   -2.41403552704143   -1.41816372909703
H          -1.20920801584365   -3.33435726353254   -1.24091980286939
H          -1.05538811999559   -1.77519604111734   -1.69447083477972
