    26
        -50.45712489  Gyration_radius:  2.42735187862 Dipole_moment: 4.253
 S           1.06746218551535    0.69825591179545    0.03507218487494
O           0.65897506312419    0.66727187657271   -1.35711348263454
O           2.05514752496153   -0.27296180467438    0.38922717616970
O          -0.19319334333460    0.49177533827130    0.90027378447584
O           1.51786514255180    2.09705881000670    0.40363634507147
H           0.86824576423105    2.73923572873047   -0.09982367291988
H          -0.54234995437406   -0.48956278679289    0.72830550281170
O          -0.16557399355291    3.38398839023885   -0.92303721654889
H          -1.03535110373987    3.12552751172808   -0.50237124574488
H          -0.11568419039963    2.89597217717735   -1.75145888665544
O           0.94825779051121   -1.99533248264325   -1.57193619774137
H           1.78103879087159   -2.08418853534211   -1.09971091275312
H           0.88989669725627   -1.05108492788897   -1.79362268396130
O          -2.27447720352797    2.29397342635806    0.17837714936160
H          -1.85726595202799    1.85236728271459    0.92506100144515
H          -2.42526416480571    1.58629735185445   -0.48318249154925
O          -0.81943476362647   -1.87216964164583    0.41186820479008
H          -0.27962093053481   -2.27186364367246    1.14453857874403
H          -0.28970507025042   -2.06218911645362   -0.40027625431037
O          -2.03019517036442    0.19775527789760   -1.50027046168442
H          -2.13234566351105   -0.66294266428479   -1.08488454900629
H          -1.07516853454643    0.33964251955569   -1.61069541634521
N           1.11938888236280   -2.43914775419457    2.14125846572089
H           0.99826241484636   -2.16731992334740    3.10875195071151
H           1.66447525767975   -1.70942790659404    1.68369046775458
H           1.66661452466784   -3.29093041526849    2.12832267988441
