    26
        -50.45669555  Gyration_radius:  2.5072019579 Dipole_moment: 2.574
 S          -0.60695856213760   -0.08369907581853    0.93932949025013
O          -0.41897709017942    1.31011055978768    1.25820453015150
O           0.60947441624411   -0.85806778362806    0.95955786079857
O          -1.27474690646024   -0.20933120842586   -0.42613336239458
O          -1.62663698228510   -0.67009798677348    1.90314248570710
H          -1.72923415221460   -1.66780145884103    1.68582019957694
H          -0.68603569338656    0.29073314573213   -1.18560884659913
O           1.95394982139117    2.70183466966938    0.86413904435949
H           1.55139575489407    3.38635884409888    0.32136602796940
H           1.21521587019618    2.24107414398489    1.28971656800851
O           0.14843811958558    1.00884428914860   -2.03173964336281
H          -0.05149555616255    1.93154753978274   -1.77069178251157
H           1.06170893391300    0.81424628650885   -1.66252332566131
O          -0.59480457925012    3.19329558320564   -0.63880685740323
H          -1.47367235866239    3.56565988408296   -0.72256744374299
H          -0.62142305216314    2.58210799357553    0.12515415406778
O          -1.71304461079756   -3.13240842356571    1.33696432663356
H          -1.16988971384682   -3.57541715638952    1.99322036956128
H          -1.19984215252116   -3.16971060274805    0.47155672848687
O           2.29488818262867    0.50121366250473   -0.67028153832503
H           1.89113523260622   -0.10922564043453   -0.03130416982734
H           2.43935121536265    1.32750905169642   -0.16557297243020
N          -0.17387691015040   -2.96181886854331   -0.79004710197303
H           0.43200035426714   -3.66190548515618   -1.19861128592153
H           0.40173395607007   -2.27011622064571   -0.31454052450038
H          -0.65865353693495   -2.48493575280694   -1.53974294094968
