    26
        -50.44848011  Gyration_radius:  2.67574025954 Dipole_moment: 6.296
 S          -1.23678213664765   -0.91540637495674    0.13706795755848
O          -1.42719907081504   -1.56624481430360    1.39460934012291
O           0.04385137055682   -1.20042191303337   -0.48943440502461
O          -1.40415806383747    0.58913797661282    0.25095700264718
O          -2.36150676705579   -1.33075806632300   -0.82157969233654
H          -2.22341272522776   -0.84723995444646   -1.69202357948023
H          -0.71945965915153    0.99097209809207    1.00627877375386
O           1.82727120402156   -0.57248742493775    1.45019184175535
H           1.58708161898623   -1.21136079204363    2.15202206019691
H           1.34985934964521   -0.88632860784346    0.66330606103162
O           0.25133508952167    1.45328145041541    1.84776605525666
H           0.93698440753999    0.72320306718265    1.80333560549219
H           0.63753750739888    2.20702420791183    1.33399109234939
O           0.50544504207413   -1.31976196897360   -3.08717533889069
H           0.40665667309810   -1.40374170384099   -2.11397195437657
H           1.33986999442277   -0.86992618368627   -3.23019030209461
O          -1.91697520226686   -0.26274904546847   -3.12595678386683
H          -0.99584897230273   -0.59711548596618   -3.25088496574532
H          -2.46563547985629   -0.74319669214033   -3.75023209519641
O           0.50771711143612   -2.17528723960529    3.17216236283492
H           0.20312150235022   -1.77541117038664    3.98886343597199
H          -0.24062351251251   -2.10745701691091    2.54957629249296
N           1.26453428075788    3.30257030148899    0.15414981191836
H           1.33287187231628    4.26875599568181    0.44623877439052
H           0.62092094577027    3.24993154534727   -0.62549504048529
H           2.17654361977425    3.00001783215544   -0.16357234029736
