    26
        -50.46594282  Gyration_radius:  2.44180601919 Dipole_moment: 4.206
 S          -0.27127698373323    1.35209815988299    0.64889872496367
O          -1.19362094277403    0.30319585123715    1.09312956199995
O          -0.86814148112323    2.24016987515212   -0.31358555765963
O           0.92870226421871    0.59799343383638   -0.05155060817571
O           0.37368584705502    2.01413583786741    1.77676008040019
H           1.36913409828967    1.04826544691804    2.20076091349049
H           0.61037810280543    0.25300272195864   -0.94360492330940
O           0.27495737643581   -1.62861187689963    2.07777868098277
H          -0.41229218173053   -0.96194495645662    1.84357384686768
H           0.39036245750790   -2.14539656672342    1.25098976071741
O           0.02979980921744   -0.31114389774046   -2.27714292506749
H          -0.82348849064384   -0.67525841508678   -1.96550883284228
H          -0.21147677386551    0.51973438180906   -2.73956842210304
O          -2.11166974718894   -1.13841686594115   -0.86448133325591
H          -3.01849401069386   -0.89609265966241   -1.05620895680938
H          -1.83691499675157   -0.58098727001842   -0.09186033674915
O           0.25709428019070   -2.63634499327350   -0.42240988280164
H           0.70943261696779   -2.10352320427067   -1.08361623708534
H          -0.68515959804869   -2.47057518582865   -0.56307778246529
O          -0.84643498779487    2.11049200251469   -2.95090548784380
H          -0.35189332990121    2.87207367825520   -3.25646018001651
H          -0.96237898026023    2.23684081558517   -1.98332430347377
N           2.04452718949545    0.20630143565135    2.39610751204105
H           2.73860461969872    0.18777843754205    1.65493085847632
H           1.38881711354151   -0.66767085238709    2.30919680440244
H           2.47774673907902    0.27388466607340    3.31117901531264
