    26
        -50.45597410  Gyration_radius:  2.47071256621 Dipole_moment: 2.825
 S          -0.98044746632817   -0.69432614776590    1.24820124224461
O          -1.70763026234272   -1.83039932513787    0.75607017839557
O          -1.11583557529432    0.48402493855713    0.42377046483479
O           0.51082304483649   -1.03862547627759    1.39062931930962
O          -1.40183625221806   -0.38311335101217    2.67495551189429
H          -0.90850507051589    0.47895004670957    2.94447122579956
H           0.91982904941649   -1.29663650192946    0.47280072085445
O           1.36886948983832   -1.57453949320062   -0.90801477546344
H           1.52631400024515   -0.69339149656826   -1.32516250912188
H           0.57615694603712   -1.93929591563649   -1.34604630885981
O          -1.16175136514121    0.46060535206512   -2.27427030998545
H          -1.32440133608644    0.61289395542049   -1.32666452405014
H          -1.27459360136595   -0.49310434639414   -2.39064951110945
O           1.45383551181098    0.80864519866120   -2.09396371500454
H           0.47141150130368    0.80484768739390   -2.22667735957503
H           1.84275224988556    0.87244715151443   -2.96740600106434
O          -1.11702459649348   -2.30347173021570   -1.75979473967103
H          -1.44021942200332   -2.16385941124226   -0.83956652760978
H          -1.42213430274493   -3.17422452054893   -2.02114561743307
O          -0.21013827023701    1.79573308606367    3.13898766829365
H           0.47968957730746    1.83982002589077    2.40398889303024
H          -0.86012731653516    2.47129573510683    2.93142221820950
N           1.35624850829737    1.81163250325735    1.02432788615514
H           2.04795639968511    1.07425284963147    1.07253003157716
H           1.77707550535812    2.60143917492270    0.55151204602861
H           0.59368306327851    1.46840002075470    0.44569451232472
