    26
        -50.47327823  Gyration_radius:  2.37190088195 Dipole_moment: 7.402
 S           0.76840715680271   -0.57381028461149   -1.15587718273488
O          -0.41017409181746   -0.94999807009977   -0.34528329933801
O           1.97618717639467   -1.13994448778286   -0.57735565671532
O           0.85043115574432    0.87597620975351   -1.26579905470694
O           0.57693094648397   -1.18757882261777   -2.55221227961282
H          -0.39203719154527   -1.02070302504223   -2.75811430695479
H           1.00133876461489    1.80942690098298    0.16411465170552
O          -0.05103599118970   -1.87136121530831    2.09393283614054
H           0.08287624239831   -2.81977085288971    2.05964972200002
H          -0.24017232388813   -1.59395670720423    1.16547183414208
O          -1.59702803013526    1.79045730515826   -1.79796865806056
H          -0.63885515457636    1.61754539994627   -1.70907581759515
H          -1.92494701980022    1.86006134750021   -0.89392438298443
O          -1.93606241156262   -0.69261554116397   -2.64957766477131
H          -2.05600768073675   -1.08455421654009   -1.77805309666965
H          -1.95372401009088    0.28553343860684   -2.50023891513503
O          -1.62269035427261    0.98824240782951    0.98008719380796
H          -1.20568645192295    0.26977779966214    0.45115461052381
H          -2.05889724464886    0.55630620239974    1.71629437091840
O           0.88936051771264    2.02271851513634    1.11590092129946
H          -0.06791653708787    1.90359867597640    1.26048072294539
H           1.61797149974181    0.77744640444134    1.68533634327841
N           2.02796511116435   -0.20693404501891    1.83023167583632
H           2.18023650235872   -0.59358543232921    0.84419652284078
H           1.29952160869943   -0.82869903798658    2.24342386328512
H           2.88400781105624   -0.19357884891764    2.37320503706041
