    26
        -50.45422415  Gyration_radius:  2.43425753797 Dipole_moment: 2.200
 S          -0.89219007520190   -0.14064930757500    1.17165444502773
O          -0.32452811421976    0.48793231786035    2.33317379820825
O          -0.13825974425389   -1.27079972975697    0.68261924297815
O          -1.00724185059185    0.91490608516035    0.04678635199906
O          -2.32708682356687   -0.56405793206648    1.41018491110585
H          -2.55292574685728   -1.17404957516188    0.57615087945558
H          -0.40276036974190    1.70547707356882    0.26713313945182
O          -2.53795416502827   -1.99342350911006   -0.61335930085438
H          -1.74853929719897   -2.51837551707822   -0.44567929453843
H          -2.28424857010885   -1.38020317492039   -1.39025293272261
O           2.14887624016769   -0.57447395808281    2.06666865172577
H           1.34923283534035   -0.15754330473788    2.43093889304662
H           1.81314472074183   -1.35193326307720    1.60667788479777
O           1.10839566472308   -0.54808407358825   -1.63437847947732
H           0.70757604937388   -0.92241236452220   -0.83439645378444
H           1.71258067231157    0.13414403920225   -1.31782363262547
O           2.71177857266204    1.12269975244413    0.11756990088158
H           2.60422605818482    0.46041193453853    0.84760106556352
H           3.63997516115242    1.36133455992514    0.09870983541645
O           0.64138939560553    2.65343929586624    0.86591924951963
H           1.47168899941588    2.24178898485683    0.53852704955776
H           0.52684593388809    2.35553423672425    1.77694283578532
N          -1.68317188603939   -0.39903618728905   -2.50108793035103
H          -1.92574199182548   -0.51571505619774   -3.47662568323135
H          -0.66864959432789   -0.46288657005011   -2.41138180882312
H          -1.94241204459648    0.53597527306146   -2.21227260811634
