    26
        -50.46300504  Gyration_radius:  2.42099728137 Dipole_moment: 5.802
 S           1.42535336605350    0.29573015405042   -0.16534469390541
O           1.59712642899803    1.57224079615086   -0.80709636593821
O           0.44702275926356   -0.54849601103505   -0.86074185456505
O           0.84821928400985    0.51576589709610    1.27754544096543
O           2.66576686540701   -0.43692867579572    0.08186991598746
H           2.28435728443748   -1.31996823048564    1.11641396787592
H          -0.00694659556888    1.07218824429525    1.22172195876737
O          -0.12827855170768   -2.80678690984402    0.36191525152410
H           0.14224208926601   -2.11049156314027   -0.27976949163134
H          -1.05343538728450   -2.61402320529337    0.55049955593179
O          -2.12675532857180   -0.56791739824233   -0.08621882382035
H          -2.57153229942195   -0.33561609748570   -0.91326608343925
H          -1.18293387854326   -0.57357748055724   -0.34471370993954
O          -1.60510308311955    0.52882161898298   -2.58322141390262
H          -1.43958305350146    1.45252070700124   -2.35126375922654
H          -0.78482845346389    0.06816815654511   -2.36838309083007
O          -1.35410909810699    1.74927499035159    1.01936428615654
H          -1.87456664767931    0.96420881334632    0.74088914279211
H          -1.23514564771042    2.28829144026461    0.21306981969666
O          -0.60112763716655    2.85604709190158   -1.33917373220869
H           0.26593103427930    2.39612259769998   -1.20852797574021
H          -0.39044417207908    3.76912594977512   -1.53962364005160
N           1.80078091587640   -1.93397026429301    1.91394811989173
H           0.99299263299198   -2.42208560228302    1.42101501203211
H           1.43832081411552   -1.26615438997242    2.59156823419620
H           2.44667637922421   -2.59249063903673    2.33752393938593
