    26
        -50.46309544  Gyration_radius:  2.3940190703 Dipole_moment: 2.609
 S           0.06865671311179    0.25378733175315    1.54078129090411
O          -0.11502779824338   -1.01816951706230    2.20299600135609
O          -1.08744781250883    0.57091360793959    0.68049238840084
O           1.28769626776109    0.29587104245244    0.73582993849106
O           0.15461911160045    1.35928056498598    2.61803455206665
H           0.43327785516068    2.15590902003501    2.08179315255599
H           1.58653094387074   -0.84974638968110   -0.35185211249395
O          -0.10116065757422   -3.03640642902300    0.60047905374902
H          -0.08389240295126   -2.30099581816790    1.27295174607373
H          -0.05148226132305   -3.85211293909745    1.10090104582795
O          -0.33639865830051   -0.73229543534304   -2.40878087411720
H          -0.35712152061200    0.26863890434066   -2.22136904621308
H          -1.10736536379434   -1.11598740723748   -1.79855836270886
O          -0.61941407949035    1.68187543598016   -1.57892097170675
H          -1.47065511235414    2.03200581268732   -1.85049400281489
H          -0.75271945454674    1.33412218049948   -0.65010700764711
O          -1.96523303777497   -1.50643503893622   -0.66770857937189
H          -1.50759947082472   -2.25599303268359   -0.24615496621003
H          -1.80755051604429   -0.74089224095631   -0.06389422808206
O           1.53284907676401   -1.58740502045542   -1.01703115682054
H           0.54901729712108   -1.10977081293589   -1.91444994725288
H           1.10834381176473   -2.31907699799114   -0.53006010192370
N           1.02922076247483    3.06553718853105    0.84408277384919
H           0.40144489652406    3.43327512349905    0.14087185485517
H           1.45778221915368    2.22276751672370    0.46702866834026
H           1.75362920103836    3.75130334012776    1.01313888088917
