    26
        -50.45255941  Gyration_radius:  2.53359557896 Dipole_moment: 1.649
 S           0.21851459448882    1.03006927676193   -0.45446009313040
O           0.39974211669207    2.25886915685784    0.26587169435803
O          -1.08565090797017    0.88372291149093   -1.05219936551955
O           0.49180929299722   -0.16058245281463    0.47362528519690
O           1.26580364653178    0.87062908608412   -1.54970839817886
H           2.09496144199376    0.36978285371111   -1.19571631915042
H          -0.18030377171209   -0.15990488817506    1.30134445489162
O          -0.79477829024585    2.55577107523981    2.60945499667114
H          -0.38207805683659    2.58154325480254    1.71958452506259
H          -0.16731024553369    2.97092912863698    3.20364926918200
O           3.22116848379836   -0.51888559722070   -0.80566752966863
H           2.69876555356428   -1.36080664101153   -0.63412096942932
H           3.77127497417836   -0.69285044076869   -1.57302315661566
O          -3.11823486610244    0.40272409800796    0.61411002153715
H          -3.52870362090251    1.25193181036580    0.79031138357042
H          -2.47569611630910    0.55800993372084   -0.10639642460866
O           1.64772277016861   -2.56208980597293   -0.49394517653454
H           0.93254984103626   -2.31214945486665   -1.13756771539160
H           1.27664764565072   -2.36835350268424    0.37080081065104
O          -1.14997782635882   -0.05796755484125    2.33167438852249
H          -1.04682782569341    0.87190200030202    2.64255269002715
H          -1.99532234402247   -0.05774773413544    1.82254070137876
N          -0.32007476213349   -1.70095498818387   -2.13056194036217
H          -0.02786481908543   -1.57278314785780   -3.09167290464816
H          -0.60308788115995   -0.78906723301340   -1.78048974490762
H          -1.14304902704639   -2.29174113444569   -2.13999046288178
