    26
        -50.46627132  Gyration_radius:  2.44774058393 Dipole_moment: 4.304
 S          -0.80400997247058   -0.85738609001381    0.78913777155448
O           0.20498658460511   -0.59589948385204    1.78620326556792
O          -0.21364428575856   -1.17396999129940   -0.51797035494932
O          -1.75631301765420    0.24255670467861    0.63729287828673
O          -1.59591801623755   -2.11688444159345    1.24899799690405
H          -2.31640599326312   -2.16355699053886    0.59343369359042
H          -1.32754058748796    1.81986102460845    0.04514203186807
O          -0.76037119578238    2.47939033833555   -0.40532275177044
H           0.06209473034228    2.47433741140561    0.14608594183789
H          -0.29637625806325    1.64328973803754   -1.53352511304881
O           1.36653261365464    1.70685326130555    0.92060096303379
H           0.93276891336713    1.02001602132372    1.45421550486056
H           1.90413477976340    1.20230978212511    0.28152335435332
O           2.32836796844444   -0.22735265859264   -0.77723933195075
H           1.51234281165582   -0.75053182076753   -0.68151666659629
H           2.90425618436864   -0.59806903895981   -0.08905388232121
O          -3.46309094178521   -1.36881774214684   -0.48490816665864
H          -4.35262753062865   -1.27186529419775   -0.13749512447176
H          -2.95602008062724   -0.58749240126677   -0.17843562212823
O           2.84637385995654   -1.25786934416621    1.69566212807401
H           3.22984243763386   -0.86806472550781    2.48301531386667
H           1.88167780340132   -1.15094719976581    1.78949069858636
N           0.07609309810497    0.81635039479137   -2.16388618326954
H          -0.33373188535708    0.80066798349215   -3.09122374703164
H          -0.17008600687227   -0.05843870839306   -1.60580136467975
H           1.09666398683958    0.84151327089506   -2.20442322350108
