    26
        -50.46404619  Gyration_radius:  2.45985859988 Dipole_moment: 6.111
 S           0.51061776006052   -1.15728885635811   -0.08968045314092
O           0.33911462305858   -0.72460545227427    1.31718803206111
O          -0.74890932311865   -1.58925000935371   -0.65692665566870
O           0.96868843399172    0.13462200181765   -0.84909725093084
O           1.60397719434220   -2.08282149079535   -0.23821997344010
O          -2.14763100936087   -0.02872755719263   -2.28937194843114
H          -1.93221488809973   -0.19964306178287   -3.20664892668552
H          -1.62603119479912   -0.67064250761549   -1.75900109364297
O           3.63453757668936   -0.50202989515432   -0.18016983134122
H           2.95002072792682   -1.22749877027056   -0.19441438298348
H           3.62086819121477   -0.14138772689286   -1.07009215461814
O          -3.28021453271245   -1.02984126121564    0.28833807832830
H          -2.43426618365326   -1.46185827235363    0.08429529034959
H          -3.58213749638782   -0.66399416816699   -0.54844841146936
O          -0.92051618708747    1.78671660710127   -0.68597792556383
H           0.21081852844185    0.83353809427714   -0.80830278149939
H          -1.52517019450980    1.39054091482759   -1.34064737563247
O          -1.82582241787682    0.84937994369267    1.58084593069141
H          -2.56227488588263    0.27523726600997    1.28892224017159
H          -1.07932009345632    0.23333891930293    1.68803731402875
H          -1.32504831389520    1.57956635267366    0.20255541520704
N           2.24738518491195    0.91450791251340    1.51563801401442
H           1.92358376178847    1.80126271292246    1.13846843498258
H           2.93113299075829    0.43602813828105    0.83456965247485
H           2.65367758341975    1.03564074336190    2.43817818849973
H           1.39513416425184    0.20920943264799    1.53996260423697
