    26
        -50.46224013  Gyration_radius:  2.54825403034 Dipole_moment: 4.818
 S          -0.12941929066715    0.95863161722468    0.70000002042028
O          -1.28268406635402    1.64201589759578    0.15193433577672
O           1.13103048324151    1.36096594739927    0.05163360307883
O          -0.27592263931511   -0.49229387503963    0.66357706088750
O           0.05805163513953    1.38208852388774    2.18407529206703
H          -0.80430149190341    1.21695701623227    2.65598960242052
H           0.55231507116222   -1.78100361177314    0.02147388096135
O          -2.96747889597670   -0.22368788547957    0.95469169061990
H          -2.24982199303501   -0.86854857391882    0.90819094444311
H          -2.58303116458883    0.55567655379154    0.50730882526098
O           1.20696397336017   -2.30395531620805   -0.49797658277408
H           0.93114088752574   -2.17059594302512   -1.43541295961975
H           2.28584203295438   -1.35523286700900   -0.34487059818353
O           0.44488734849062   -1.48354503756217   -2.90680457666040
H           0.24100811538954   -0.53651179288241   -2.73336797553020
H          -0.32950154534565   -1.84635440627849   -3.33908674123064
O          -2.29888039883225    0.97764279602077    3.21005244459404
H          -2.76548195300173    1.81621876554171    3.19972021041131
H          -2.69032505691318    0.43742591624044    2.47721639566760
O          -0.14417234296403    1.05607459311528   -2.27309618142362
H           0.48809514847085    1.30807739576106   -1.57942850851079
H          -0.99348914856062    1.27447336449652   -1.87200281373113
N           2.93452338318657   -0.45486539983350   -0.20877798322118
H           2.22334626777510    0.34631020230947   -0.05363668031816
H           3.48090833246550   -0.26953813789643   -1.04391357057595
H           3.53639729815840   -0.54642578282174    0.60251089512633
