    26
        -50.46298424  Gyration_radius:  2.51632221666 Dipole_moment: 7.380
 S          -0.18552585598297    1.59532345888915    0.02141168001105
O          -1.63377761053682    1.77915204545190   -0.02946261884117
O           0.38127768887343    1.34217665717738   -1.29794605003146
O           0.15490852620092    0.51812729950629    0.95233849268617
O           0.40960826770002    2.91263275861365    0.56938312834454
H           1.37007302326745    2.84857108047148    0.30849352297323
H          -0.59292072968048   -0.86085037599829    1.54887002710351
O          -0.50107951232094   -2.86228735245011   -0.62658635493327
H           0.04607062758070   -3.63513842017086   -0.47586081904370
H           0.08775619823441   -2.19154038196877   -1.03968777357956
O           2.69720407442905   -0.14586691254738    0.50724820955690
H           2.54866425722437   -0.69532457296053   -0.27144539758807
H           1.79949765884924    0.04870376448044    0.84180848993154
O           1.17173385002118   -1.07953230461521   -1.74707728860649
H           1.23857332225424   -1.12854513735654   -2.70234881790125
H           0.83862462515871   -0.16382785222333   -1.55099587103693
O          -1.22483378767770   -1.61200646429943    1.61533990098929
H          -1.00148745539670   -2.17982191628503    0.84117719665943
H          -2.39964180570688   -0.83625475301978    1.21654477383886
O           2.72151399984863    2.36287094114111   -0.42780066435903
H           2.96212247964760    1.51003383325483    0.00104226257348
H           2.18879659966202    2.10902261905123   -1.19431922798416
N          -3.13427792291289   -0.10185144035942    0.83287714930748
H          -2.52083369910170    0.72423404854821    0.46608252776932
H          -3.74405135013191    0.23089856871071    1.57224563041477
H          -3.67799543945287   -0.48889920105625    0.06866788170016
