    26
        -50.45522903  Gyration_radius:  2.56933995215 Dipole_moment: 3.504
 S           0.38313311488729    0.84280899677858    0.17150714250827
O           1.42583469468621   -0.04347371678615    0.65744699267724
O          -0.62350786794593    1.10812704005959    1.18334479417860
O          -0.24050997426392    0.27084083171695   -1.04768390520437
O           1.00540784215215    2.19140221320657   -0.23531364951053
H           1.41917778147483    2.00591806713882   -1.13664031143511
H          -1.54476356499474   -0.16223165337958   -0.94989456240883
O          -2.55338684412174   -0.49193581600239   -0.74127745574058
H          -2.95021989522942    0.30512145480096   -0.23262139280066
H          -2.43289488236600   -1.24609391904384   -0.05132019088448
O          -3.12669345323943    1.51912595238597    0.70145088065064
H          -2.15896021683177    1.54418451193492    0.92127086255531
H          -3.58860640771140    1.37360516449281    1.52966220719237
O          -2.10182949837082   -2.26535224762256    1.02414773498498
H          -1.82703098380278   -3.12157260860520    0.69171929879371
H          -1.34209742652207   -1.92713114060446    1.57946596387732
O           1.85274141744757    1.30998938087721   -2.47003868087318
H           1.06519619055473    0.75027357044462   -2.46012850764005
H           2.59754277705967    0.73069521103979   -2.16194942004786
O          -0.07752857368311   -1.33341815718223    2.38449321227845
H          -0.40492044674012   -0.55484778916047    2.84368103148377
H           0.58389776819973   -0.96959738547690    1.75546829968442
N           3.56493717778932   -0.31462852910938   -1.20423916960151
H           4.42826532527692    0.07968377345951   -0.85253939186018
H           3.75034709854639   -1.27403780053542   -1.46821031315648
H           2.89646883793374   -0.32745538472563   -0.43180147969597
