    26
        -50.45156772  Gyration_radius:  2.63464450966 Dipole_moment: 4.534
 S           1.30209299994623   -0.31759419570433   -0.61238481472189
O           1.76182372207322   -0.46833177299827    0.74194282836977
O           0.56524780117624    0.89035624987718   -0.88409945486165
O           0.46589340887131   -1.53121647193230   -0.99167153406661
O           2.51454868980691   -0.36613230527066   -1.56362501355976
H           3.00916131570629   -1.21276138897951   -1.27729746602404
H          -0.45854261131321   -1.20187097604210   -1.45183330826520
O          -1.59249437789766   -0.55363629265520   -1.92138839289727
H          -2.17115867866300   -0.54752901217147   -1.08377158022779
H          -1.24951402363441    0.34464731321946   -2.00039203880193
O          -2.79760772934416   -0.34991268620080    0.33164824150649
H          -2.07161475747228   -0.42978140065334    0.98187638573923
H          -3.05473320509215    0.59274237617886    0.35639730232940
O          -3.02867599793908    2.35791232242747    0.57379057533122
H          -3.44998011651612    2.61925225639670    1.39407989232230
H          -2.07306396191553    2.51745568379242    0.68883174721889
O          -0.64161763930552   -0.06548530332723    1.97582130413312
H          -0.60009080439843    0.89866951822864    1.99112341902524
H           0.23269033580038   -0.34976305715905    1.67007949417232
O          -0.32345680739992    2.58388490699803    0.96316296412359
H           0.18993436096799    3.39077601831203    0.89978536497363
H           0.02016722559346    1.98607949961222    0.26520757104109
N           3.36692338997625   -2.51258817166731   -0.44574644528587
H           2.98470603362667   -2.14101039017094    0.41900885518457
H           4.30918662993156   -2.84325730500882   -0.28286743371921
H           2.79017478728832   -3.29090541504046   -0.73767848300220
