    26
        -50.46506322  Gyration_radius:  2.61383574176 Dipole_moment: 4.708
 S          -0.84443883532685    0.42781392576687    0.48619144323977
O          -0.15219872705751    1.56976078437247   -0.10864471996574
O          -1.33888414879002   -0.48506891123517   -0.53724921967172
O           0.03721853412172   -0.26142052622644    1.42958706980109
O          -2.05167549946032    0.98855777103270    1.27252039701693
O           0.08263520511575   -1.19847920277358   -2.63733711004941
H          -0.48254633736224   -1.04212235920173   -1.84398007203755
H          -0.47795050196515   -1.02332601148491   -3.39490104230739
O           2.55254632380358   -0.75905409529074    0.80210971319205
H           3.07080705661214   -0.37023934551044    1.50858350741275
H           1.61063524328122   -0.67099154742236    1.08031962957802
O          -1.32043845982441   -2.14656328110424    2.69848543045466
H          -1.27594525518989   -1.91480371140007    3.62758764365381
H          -0.73553754361873   -1.51171065233174    2.23004697019075
O           1.62908631552606    3.23030540594788   -1.51249372087929
H           0.91243334014373    2.88694541809433   -0.95876773477024
H           1.51470238644143    4.18102282487737   -1.53828209256839
O          -3.29897456052888   -1.23987907998267    1.13386143627708
H          -2.76292493695515   -1.75843075195233    1.77063282833215
H          -2.68212914187322    0.20752083151120    1.31473900482946
H          -2.82778300307214   -1.31620330631133    0.28962882132746
N           1.80163063996162    0.43706346341027   -1.44856542329939
H           1.01101836586128    0.91751165433822   -0.92859213744309
H           2.34351378315991   -0.07286076493082   -0.71352734278385
H           1.34252909735888   -0.23640795330052   -2.10411429626634
H           2.34267066964505    1.16105944110845   -1.91783894326703
