    26
        -50.46117075  Gyration_radius:  2.4001320467 Dipole_moment: 7.813
 S           0.15280373330637    1.37579452139127    0.25587869284921
O           0.78127313525133    0.18614432899836    0.85154131357818
O          -0.89889468874576    1.91857648032098    1.06444046099868
O          -0.46612214521438    0.85015975513351   -1.09936240743941
O           1.18074167496090    2.32308898311584   -0.17168285831787
H           1.80820447223512    1.61477422474973   -1.22733902021311
H          -1.45055429444301    0.68321256329416   -0.87166802014247
O          -0.90233309338771   -0.19188721226393    2.92870179649440
H          -1.27811796571332    0.69345761864212    2.93732402070372
H          -0.15248943410645   -0.12337578831109    2.31320861313103
O          -2.33683955974287   -1.68839545057684    1.19735507817783
H          -1.91099897075580   -1.26955460462137    1.97553041687032
H          -1.63090807011710   -2.16395085450973    0.73781453584831
O           2.65600122825038   -1.14941635575289   -0.49526284297541
H           2.21200852714178   -0.67908592616703    0.23958750319477
H           2.07395984780616   -1.90119005880276   -0.67268922440949
O          -2.79614022885503    0.46989495800634   -0.23346910665781
H          -2.76417104864087   -0.38870927398757    0.27346401720497
H          -2.65199049944841    1.16412642915333    0.42412258585269
O          -0.08227700546985   -1.95988651966427   -0.51474351460301
H          -0.61935514767891   -1.60462530859498   -1.22679275918324
H           0.16619684510919   -1.19178939191451    0.03852172600002
N           2.16461647569485    0.92558601015363   -2.02797079267866
H           2.46128436616272    0.03066117975861   -1.52025791267908
H           2.92868276823896    1.33222008694469   -2.55854753251097
H           1.35541909793887    0.74416961545202   -2.61770474894746
