    26
        -50.46506320  Gyration_radius:  2.6139293091 Dipole_moment: 4.711
 S           0.24701858611070    0.14078656961147   -1.02552075478936
O          -0.83888377118322    1.02481974574514   -0.59931616624244
O           0.51617296633333    0.39307864959449   -2.52690652313050
O           1.47708247571438    0.47107092833604   -0.30788602137312
O          -0.11228127791121   -1.26065681046594   -0.84605038446453
O           3.43524321765815    0.90134876402628    1.66275708782530
H           2.94647368351291    0.84881069013303    0.82824889683882
H           4.31565974390931    1.20467078008790    1.43803613000066
O          -1.21612259037318    1.55688559067429    1.95876188614547
H          -1.18193266408985    1.35190738856610    0.99485206174781
H          -1.19993671526771    2.51321091233734    2.02295895695021
O           0.01481088637877   -2.49063948426572    1.47998467795859
H          -0.13341666054325   -2.08492219449132    0.59302380007774
H           0.53413918535808   -3.28056506543670    1.32147022315534
O          -2.97391022548055    0.60004641579513   -2.10551642267226
H          -2.24733271514194    0.77299290058235   -1.46773096703778
H          -3.15721781460832    1.43744093580941   -2.53461719131440
O          -1.34803591887531   -1.21124218052857   -3.22826325578386
H          -0.16069526752480   -0.19204047215008   -2.98378617384818
H          -1.09896085933085   -1.67049503837899   -2.41115717101382
H          -2.12461054514029   -0.66420394864169   -2.98445217319494
N           0.86589866085194   -0.07820935380410    2.18614322888425
H           1.67697933041749    0.10833018758187    2.77305136623436
H           0.56577434371809   -1.08024710543527    2.18977963427970
H           0.05573781048139    0.55171123479292    2.38798738603623
H           1.14234615500151    0.13610995993832    1.18414786876650
