    26
        -50.45130290  Gyration_radius:  2.46841269891 Dipole_moment: 0.981
 S          -1.46384056832641    0.01638831898379   -0.38202722875209
O          -2.56122545637642    0.57884615616488   -1.10922054631019
O          -0.48610663111070    1.00325614276620    0.02633413625486
O          -0.75054339028063   -1.06514815062664   -1.22981044457643
O          -1.95089268853467   -0.76727986766978    0.81473273741534
H          -1.26340144100561   -1.55131272374060    1.03105685695601
H          -0.20475192430399   -0.63523055936138   -1.94986706489619
O          -0.33399480561708   -2.56368333004599    1.36148222089431
H           0.57969187589368   -2.11416444531060    1.46675619158918
H          -0.55301605353313   -2.92988455253908    2.22159341329237
O           1.83744860352309   -1.28515547594985    1.74442899817651
H           1.44459959829047   -0.54897956114645    2.26751367163872
H           2.11530414979803   -0.87095681816802    0.90684078428798
O          -0.99093686960625    2.27666963850004   -2.44532606238126
H          -1.74585661416354    1.77412225755553   -2.08201543835873
H          -0.58534694086322    2.69760501902834   -1.68179838526128
O           2.05426710334924    0.22671046395996   -0.51999285332523
H           1.19483977539914    0.61942133885820   -0.29106074209132
H           2.01951142378776    0.05852465935397   -1.46535811446316
O           0.53646125417814    0.23587621867947   -3.05135915323926
H           0.33745518343226   -0.06370286608063   -3.94100801727499
H           0.04408244627447    1.09175652995102   -2.92454772865494
N           0.35400618512602    0.73685473583660    2.80105096651796
H          -0.44321489076814    0.55328849155856    3.39731657873617
H          -0.00592813127785    0.96529466967915    1.87610894923546
H           0.82138880670910    1.56088367973340    3.15817628459417
