    26
        -50.46282448  Gyration_radius:  2.50664663904 Dipole_moment: 2.387
 S          -0.85530038355675   -0.07253978537917   -0.66585797581906
O          -2.15468777333757   -0.09786841496269   -0.04977539283075
O           0.18006139679452   -0.64568432484675    0.24691748068316
O          -0.40616459989837    1.41525270431010   -0.86640030873898
O          -0.76176833784844   -0.68973723584097   -1.96338691834458
H           0.65933418792658   -1.00435516208611   -2.84366414754703
H          -0.60740073092173    1.91475605151541   -0.00745668615812
O           0.14384909636845    0.45690095679688    2.70519272403066
H           0.20327569803193   -0.08000297105094    1.89360498179059
H          -0.75811749219701    0.32626652490196    3.02842890580808
O           1.61541272577238   -1.23419039908552   -2.91587498731999
H           1.66827590867203   -2.05923464023727   -2.39017363561165
H           2.07909191802319   -0.23004495628187   -1.92172664446053
O           1.06060181865276   -2.93799622411363   -0.91613063025319
H           0.70850069433539   -2.18952100124522   -0.39865883170608
H           0.29736151357211   -3.46259475936052   -1.16426705638594
O          -2.64394416604310    0.69620879610108    2.40340218843087
H          -2.49915137665020    0.35211627029418    1.49206233342379
H          -3.53227834742515    0.43176224769172    2.64430072187565
O          -0.79268226108501    2.54664337206785    1.38318386259334
H          -1.70575961976900    2.37969871055087    1.65265175503954
H          -0.26962793408571    1.93983962244271    1.96349714914224
N           2.13222801442997    0.42839543440347   -1.03766011094162
H           3.06433322715521    0.50019532729187   -0.64188199653208
H           1.43260569252263   -0.02678780068960   -0.36295672728608
H           1.74195116055886    1.34252167679633   -1.26737004286954
