    26
        -50.45895052  Gyration_radius:  2.47268353233 Dipole_moment: 3.235
 S           0.89275517533972    0.51979798873347    1.29198221306358
O           0.65311634142973    0.89512511640162   -0.12505787778230
O           1.81146970873086   -0.59026985356254    1.37509975449754
O          -0.38867876403894    0.25228731625574    1.93293566056443
O           1.54741922635125    1.74602800202824    1.96783750443250
H           0.81167679143664    2.42207447603129    1.94447885209933
H          -1.25519559848210   -1.01110831839808    1.26414568434826
O           1.62925440521950   -0.92519227289203   -1.88440658834521
H           1.54403946324333   -1.72723692382211   -1.34784348759486
H           1.49507888411624   -0.18936001366087   -1.25736806831164
O           0.87275620386247   -2.67409647834937    0.16071049344738
H           1.27568065326760   -1.92698890884425    0.67603004384344
H           1.21015864039861   -3.48050849918937    0.55409066578319
O          -1.53068123744790    0.22664674099216   -1.10776938249166
H          -0.64361302817411    0.61227385471179   -0.69611000536603
H          -1.25027146525587   -0.15605977766552   -2.02551326634411
O          -1.59261086928322   -1.61978806279538    0.56384078908678
H          -0.82683173386471   -2.18730062401163    0.34099198296245
H          -1.70464416373176   -0.60741611090986   -0.46715374207818
O          -0.56545503651598   -0.72203944108243   -3.25300112512948
H          -0.42415810813580   -0.10476334034351   -3.97239130982009
H           0.33269674461413   -0.88423710184210   -2.83833829077180
N          -0.71280736079324    3.03299217508845    1.75820635666919
H          -1.08920020360671    2.10024912204405    1.90950249969033
H          -0.95102603464201    3.32660421155210    0.82026243906820
H          -1.14092862402865    3.67228672354247    2.41483819444682
