    26
        -50.46018706  Gyration_radius:  2.41857221983 Dipole_moment: 5.761
 S          -0.26578859644900    0.52735166066975    0.44920737924521
O           0.01263346078716    0.43986217787001    1.87119073129621
O           0.42299181786666   -0.65494109557762   -0.22632342473073
O          -1.68093281477646    0.51361438846253    0.12828798901664
O           0.37423058424335    1.73942630571166   -0.15431550443536
O          -2.78959883853839   -1.63689635694094   -0.83639161189394
H          -2.65035657168375   -0.76217811982855   -0.40520597467523
H          -2.40890985449797   -2.25198520352202   -0.18222567179102
O           2.42805485361234    0.70143033739666    2.74564169510686
H           2.42072024668258    1.47190972528870    3.31606862551207
H           1.47172462229046    0.53038183001202    2.52058030324491
O          -1.13759137010647   -2.30288685451824    1.23302991707214
H          -0.44337334845190   -1.81387377195740    0.76092437584827
H          -1.31395676609387   -1.77377383102269    2.01424113495306
O          -1.09872929557138    1.55187222303865   -2.34269885248751
H          -1.98016648942494    1.71124318919481   -1.99170437056431
H          -0.50379301373674    1.73111867367429   -1.57718141513172
O          -0.84033687775973   -1.00452047523399   -2.29315713110907
H          -0.99983086593444   -0.01720374440457   -2.49815464836828
H          -0.19643189011704   -0.91939216695031   -1.41104339841007
H          -1.72035595848290   -1.36662940328820   -1.84049767379498
N           2.64344025782175    0.72189172284038    0.12872612946717
H           2.22528946792437   -0.19471635261550   -0.09613529298998
H           1.75550433989475    1.36494499889133   -0.04866733613112
H           2.81798589353453    0.75313407823183    1.17006814706870
H           3.45757701717210    0.94081608458518   -0.43426414146359
