    26
        -50.45085029  Gyration_radius:  2.45722351327 Dipole_moment: 3.727
 S          -1.63765518385414   -0.41193734054899   -0.25342157654086
O          -1.96148238652807   -0.64358024169334   -1.62088199547625
O          -0.97109973565868    0.85259898409162    0.00660946672220
O          -0.73777383615550   -1.54436082375968    0.28969991283415
O          -2.86859768075646   -0.52524004358485    0.63235552180695
H          -2.57585483513192   -0.13311661540218    1.53041313453446
H           0.16817361807785   -1.57761680129149   -0.16756811777635
O           1.50638922967810   -1.55324062803155   -0.92834014290222
H           1.21773551125930   -1.03306590068495   -1.78239907890399
H           1.72747657492637   -2.44460675797962   -1.20328010888792
O           1.53780223345399    0.53592444778171    0.94770795834421
H           0.64420056487883    0.72878344257560    0.60843706785602
H           1.86535248603731   -0.18592956439598    0.39630975343721
O           0.51109351821709   -0.40489707336408    3.24532395495576
H           0.97871906243923   -0.04409063399120    4.00017700448863
H           0.99873232207085   -0.10907489728054    2.44368959682558
O          -1.85748295659518    0.63850669855087    2.63172019370204
H          -1.51062824151689    1.33970077062720    2.06856905876674
H          -1.06526659054087    0.13782831540120    2.94860019864987
O           0.80491299523808    2.30875452118533   -1.55613453743184
H           1.51317452286832    2.30244347233735   -0.90651762485571
H           0.01907345022016    1.99028422944856   -1.08791460278461
N           0.57527829609536   -0.22267355151105   -2.90688128103195
H           0.77233926496099    0.76018849016192   -2.71387981901073
H          -0.41969755292054   -0.36182406457580   -2.73772480361733
H           0.76508535924706   -0.39975843389983   -3.88466912339650
