    26
        -50.46333169  Gyration_radius:  2.39778615593 Dipole_moment: 5.847
 S          -0.73058004677075   -1.37813196602212   -0.38170218156361
O           0.46320666949973   -1.50975640053900    0.44048840557704
O          -0.46911953108405   -1.59224313440652   -1.78731563470480
O          -1.21785570700708    0.13144817169176   -0.22715948113001
O          -1.85855899879738   -2.12188945500319    0.15807173332821
H          -2.23809962652359   -1.27998136997730    1.31463197036700
H          -0.66092053285684    0.72365966394855   -0.77974611717488
O           1.56231295461432   -0.29575396857887   -2.72161246307857
H           0.83284527277716   -0.87607238223942   -2.37300112583385
H           1.78276715136807   -0.63880956763279   -3.58877709584940
O           0.16800495987337    1.77777804830676   -1.78403138989656
H          -0.40080856253694    2.06564384411978   -2.50024312939698
H           0.80851386422201    1.14288137649847   -2.17324924256127
O           0.06086488915006    0.05328031016867    2.50310948505404
H           0.36674601687323   -0.63417707715749    1.86927385032654
H           0.37343170053736    0.89452712008116    2.09156724207544
O           2.59974657673540    0.03694473238726   -0.11339453701847
H           2.59013813595061    0.01673208003209   -1.07762924400539
H           1.95588418175332   -0.64479149275693    0.15319039244632
O           1.09566378233323    1.99410734358861    0.98759879437557
H           1.80752085472409    1.39369303600748    0.67676939722692
H           0.64731881094717    2.27534660439012    0.18469142221274
N          -2.39002539904781   -0.55849872624677    2.11251274618109
H          -2.84526778305567   -0.98284829480718    2.91430579730019
H          -2.93747728201938    0.21295253512324    1.74409290875421
H          -1.36625237165923   -0.20604103097785    2.35755747698824
