    26
        -50.46794734  Gyration_radius:  2.40402550155 Dipole_moment: 8.217
 S          -0.74929061376878    1.19313121290466   -0.98538065198792
O           0.25975417234542    0.17898865755869   -1.38555178100238
O          -0.13187052747266    2.43800867666661   -0.62971143718731
O          -1.59617082085164    0.63360307941536    0.06667677124304
O          -1.63940525426151    1.42540077090169   -2.23867710046838
H          -1.96788459518398    0.53058551660125   -2.46060123546512
H          -1.03985563613319    0.70616631545940    1.65138559107399
O           2.41236765307369    0.02299737394703    0.04197946995042
H           3.17287590131915    0.02322314761983   -0.54060057095286
H           1.61864406450714    0.15742887578632   -0.54449993837048
O          -2.15183108516093   -1.14300886593765   -2.77515791311053
H          -1.50151022502586   -1.33604949644968   -3.45439242144831
H          -1.89101084066659   -1.64964153945313   -1.98788895077601
O          -0.91538708500987   -1.84732653810095   -0.35867407046915
H          -1.55923242590649   -1.22846562952176    0.03166362767141
H          -0.34329529063348   -1.20492298277952   -0.85693829785212
O          -0.45525568435969    0.61041911280618    2.43881908954781
H           0.22648551310749    1.32046952205961    2.31209934943587
H           0.26564417560448   -0.60415282464032    2.11223877000456
O           1.40769191426457    2.21928065028855    1.53036743917128
H           2.03634784455980    1.59494615283277    1.14433917819835
H           0.85827795755595    2.51308126829203    0.77475348100979
N           0.81049912955148   -1.46793478824511    1.66061594622390
H           1.62180187801996   -1.06403823913744    1.15989028457408
H           0.15783505159209   -1.86858691790630    0.94261617027434
H           1.09377481894078   -2.15360250096470    2.35062922071689
