    26
        -50.46949710  Gyration_radius:  2.39084538767 Dipole_moment: 9.062
 S          -1.47577900167096   -1.08261611290444   -0.16145095264821
O          -2.57746240151812   -0.41900888114904    0.47193402581067
O          -0.28711772000752   -1.09361546626795    0.72499411151486
O          -1.10001138681004   -0.51359476657499   -1.45349831620298
O          -1.84549172568884   -2.57816058621428   -0.38755867197946
H          -1.11340921755764   -2.89348430240245   -0.95309424795113
H          -0.63365195440150    1.06979961053879   -1.54013442544164
O           0.18993046381861    0.92054055712599    2.28136400909333
H           0.07476982740260    0.66502409488670    3.19736113793062
H          -0.07377303023369    0.12907100373198    1.73956640466846
O           2.07793607779463   -1.21354650019307   -0.23404119424644
H           2.58923173833394   -1.73498941941625    0.38719066903309
H           1.13561182134758   -1.22969271381996    0.10676410199385
O           0.28450223546700   -2.67321687529955   -1.98154654044659
H          -0.15535662874934   -1.81579400311245   -2.13203615293894
H           1.14456822587212   -2.44611325734014   -1.60759456371888
O          -1.88185208436619    2.14559467819008    0.80274054288096
H          -1.25350677636853    1.97862941104901    1.51852908744211
H          -2.33547784907755    1.28946656326496    0.66810028180940
O          -0.32358712806506    1.97582118903164   -1.30340861143003
H          -0.97129291885072    2.25630562259423   -0.60598925286604
H           0.88259422439391    1.72952498481980   -0.57186077705210
N           1.74348412439487    1.46407851770891    0.10013332833171
H           2.50329385524091    2.12939003874447    0.01508205024469
H           2.04646741138966    0.49542454344975   -0.13877564855491
H           1.35537980790709    1.44516206950490    1.05722960473440
