    26
        -50.44875574  Gyration_radius:  2.44333869396 Dipole_moment: 4.403
 S          -1.49553686108076   -0.36802097911132   -0.15152877575488
O          -1.24258922097665    0.35055612946954    1.08440426325704
O          -1.57856645661220   -1.78259518874171   -0.00037451199080
O          -0.42090541407651    0.02545407457234   -1.16443164627527
O          -2.78315124938880    0.15673659021265   -0.79266938501794
H          -2.56940635433744    1.09395500211312   -1.07755661558437
H           0.49593754191500    0.36955813453790   -0.72245297838646
O           0.63672451045126   -2.91265080340597    1.00221287050115
H          -0.19781801907028   -2.60564206608589    0.59816209874163
H           0.47191363108013   -3.79711278834002    1.33299303226483
O          -1.87198292090908    2.46418805368771   -1.48453723601443
H          -1.27956729561288    2.23323178272330   -2.20523690869284
H          -1.30364731641538    2.75344472730150   -0.74028173398841
O           1.60730313145369    0.91287105362546   -0.04669115598835
H           1.62392297815628    0.37479556886827    0.80153038211535
H           1.29769313034268    1.79585845802746    0.20563991930754
O           1.16013280429764   -0.48629054651905    2.08719984529185
H           1.18448417794452   -1.42691949370071    1.83211882507068
H           0.22296736554264   -0.24017108738328    2.05527342527938
O          -0.32784423517587    2.76442713696019    0.71453272220773
H          -0.69674209433237    1.88794167834899    0.97930629244822
H          -0.52910403623257    3.37443069306708    1.42638741096433
N           2.06198072971964   -1.88734414742951   -1.60677054274036
H           1.84092471578237   -2.39021397908997   -0.75430742642710
H           1.18011037361758   -1.63847302080259   -2.03870853444583
H           2.51276637389200   -1.02201497283963   -1.33421362613771
