    26
        -50.46171462  Gyration_radius:  2.39914359944 Dipole_moment: 5.858
 S          -0.37462801037445    0.49541077527711    0.95167698618653
O           0.75583010778484    0.44727039488134    1.87496004521664
O          -1.59231102085728   -0.08613494005398    1.44778508078638
O           0.11814060087173   -0.38439372296077   -0.28044122478714
O          -0.53141961024505    1.83653683350316    0.38861859816814
H           0.94369676395699    2.13138663159663    0.04349328749281
H           0.02252141277118   -1.34212141504885   -0.03073594912094
O          -0.02686198218577   -2.83908175508287    0.57273932827983
H           0.77654979215984   -3.35810635802499    0.49928645766812
H          -0.10591707935592   -2.59041258704454    1.53208903332457
O          -1.01949041799939    1.44883071434482   -2.24488980567820
H          -1.63896724731720    0.70654986778389   -2.14996157275939
H          -0.96258604077937    1.79755548883915   -1.33912337673798
O           1.49225890859495    0.69078968319103   -2.42625426355399
H           1.37380290857653   -0.24012753274765   -2.21850354759020
H           0.55541647066894    1.03292448672088   -2.50565755559286
O          -0.10457416541601   -1.81959966729529    2.99898394721827
H          -1.02909767907450   -1.55679670173943    3.06103610048052
H           0.35523285805728   -0.99132354793541    2.75560290713308
O          -2.62198841181285   -0.50757127967119   -1.05108629606172
H          -2.53107729229354   -1.46098898139051   -1.10727884664420
H          -2.41438933046350   -0.27905366981152   -0.12920821196603
N           1.95459543279690    1.81863399117509   -0.12214522421786
H           1.91533685311502    1.33749013718992   -1.09422324078049
H           2.05904689985398    1.13869656342924    0.64634075765417
H           2.63087928886410    2.57363659084009   -0.07310340413887
