    26
        -50.46415477  Gyration_radius:  2.51976558709 Dipole_moment: 6.940
 S          -0.14961795672287    0.52963198913358    0.19356340917852
O          -1.02068089610417    0.11894404213681   -1.01696987753186
O           0.94200176249594   -0.43682545613387    0.31899860710829
O           0.32431744404791    1.87958772402596    0.00977843057034
O          -1.04628407377498    0.39578824129947    1.35648453574985
O          -2.13368536186809   -1.92092607341368    0.51396730142728
H          -1.89352136371346   -1.02158081903228    0.80703985013156
H          -2.31163153515366   -1.83013709263044   -0.42526363825248
O           2.49143679071412    0.78518909354271   -1.46707034000207
H           2.41733382717551    1.68852213633024   -1.14572752080164
H           2.06093354577465    0.24074646174926   -0.78087588900643
O           0.28853186658652   -2.84023335045032    1.15273704546820
H          -0.64609753350881   -2.81074509193659    0.85028674339327
H           0.71629068053843   -2.10556140380462    0.65859179854574
O          -0.17374997105931    3.27258299086178   -2.19676817363394
H          -1.05247775566218    3.64545326855308   -2.11564447887146
H           0.03351640731835    2.87159404831963   -1.32609264650049
O           0.33553938552040    0.76601581128894   -3.03459588078113
H           1.24664612984463    0.68502636199066   -2.66868228756074
H          -0.49648462401848    0.33503577831999   -1.88032322412801
H           0.15013519088931    1.72715778502679   -3.02956103743122
N          -0.01054814710958   -1.19578024990340    3.09147599773171
H          -0.44668046582095   -0.44512032067577    2.44357411346292
H           0.16494805340239   -2.03252081275601    2.38922928038683
H           0.86727647867307   -0.85491393661284    3.46961563275388
H          -0.65744788846888   -1.44693113522617    3.83223224859566
