    26
        -50.46171457  Gyration_radius:  2.39893982158 Dipole_moment: 5.857
 S          -0.80574437829002    0.70560156090640    0.38104179250669
O          -0.35942810651386    1.10755576455324    1.71226399455080
O          -2.12472960734491    0.13611851439998    0.32637480714479
O           0.23212614281366   -0.43045543194379   -0.02796875157528
O          -0.56681958023395    1.77071200402120   -0.59289354185424
H           0.87284936236757    2.15491847447852   -0.18846171086338
H          -0.03124195777102   -1.26840196383732    0.43802525484488
O          -0.47428915285139   -2.49860666609699    1.38543594886815
H           0.21388587190332   -2.89602788649974    1.92279649632364
H          -1.04640704821091   -1.98027416057400    2.01191443528108
O          -1.65523676449680   -1.17865865241402   -2.02596106720866
H          -1.96992836666522   -0.64947117422765   -1.27355456063828
H          -1.59343448936310   -2.07889050706328   -1.70021676575805
O           0.43217242386002    0.52381682096942   -2.77727000167544
H           0.00620196292193    1.13943649689891   -2.15695362260937
H          -0.17565724592464   -0.23405989881331   -2.77784643699238
O          -1.79919434632224   -0.80319843509009    2.90290851663172
H          -1.24147578806266   -0.03291856921376    2.67412747612983
H          -2.59727236497594   -0.66960288734555    2.38049222961786
O           2.60078743983388    0.11755798007564   -1.34587708368901
H           1.87437659467076    0.27942813557446   -2.01461202214632
H           2.34387756267913   -0.71114904562153   -0.93229169398821
N           1.79485077946733    1.95493907355253    0.31827134464090
H           1.43154913872810    1.56738495101484    1.20245945089747
H           2.37299966249002    2.77712475160077    0.45794694007919
H           2.26518222520282    1.19712074060397   -0.30015141855543
