    26
        -50.45535775  Gyration_radius:  2.47419520841 Dipole_moment: 2.877
 S          -1.55540908643766    0.63915901028270   -0.29009160838498
O          -0.79116758043221    1.20373715363455    0.80581189634253
O          -2.75860151205883   -0.01533791552324    0.11577985122055
O          -0.63869290294962   -0.32656234454785   -1.05887381028366
O          -1.86269773742065    1.71495039949156   -1.31805465060889
H          -0.97224254890505    2.08080025742260   -1.68025048092235
H          -0.31753280070479   -1.08771389128320   -0.42612100455097
O           1.70043466744239    1.69392299194577   -0.08445283873536
H           0.85935164313629    1.54191517969773    0.38138440451514
H           2.02265558616940    0.80431432613683   -0.36972482945215
O          -2.50446551809948   -2.48682006244524    1.12687922543384
H          -2.75144235152145   -1.64011542006043    0.70651566212829
H          -2.80825254954381   -2.43107699115884    2.03502456362134
O           0.36398742582032    2.63204163993032   -2.08441548344960
H           0.34703432387147    3.58918738278504   -2.01529083625976
H           0.99522575308883    2.30608630442328   -1.36919131591538
O           0.06448881051644   -2.09183943779860    0.58621342438574
H           0.30344039749405   -1.57107006048146    1.38848731734220
H          -0.82080440898649   -2.47401840309679    0.78391277628812
O           0.48435789898615   -0.35065601753378    2.55559082464022
H          -0.07834080019538    0.29604743414723    2.08691062293972
H           1.34288802486396    0.06666438124015    2.65494665821480
N           2.34526322327414   -0.78182757966488   -1.00225567008799
H           1.99028754535887   -1.52411488921896   -0.41038702836886
H           3.28311638983278   -1.02995545279534   -1.29124828412466
H           1.75711809739808   -0.75771800552452   -1.82709935593837
