    26
        -50.46515384  Gyration_radius:  2.45928010922 Dipole_moment: 6.910
 S          -1.40302629279407    1.06836895626521    0.03203598354261
O          -0.64142879164621    0.29241191563983    1.03881089206427
O          -2.81677159300564    0.87494969835137    0.17790241454371
O          -0.89927362712589    0.74526413029694   -1.30037285696839
O          -1.06468530798919    2.56379140898581    0.32211017000156
H          -0.14009341092814    2.66268410993114    0.01019342864914
H          -0.87361542019530   -0.79682714146921   -2.11431967035507
O          -0.84134686613497   -1.77484459001121   -2.08948344520374
H          -1.65629932479421   -1.99855747151337   -1.59517113525768
H           0.19537592034380   -1.81243521277760   -0.95233454024242
O          -2.88650398195839   -1.73224460629587   -0.34518532743736
H          -2.86781732645977   -0.78086398018670   -0.10404271062010
H          -3.80814383763894   -1.93015793680085   -0.52350869580169
O           1.27558511053902    2.14003827322945   -0.86786053354048
H           0.59979609279044    1.60952962070299   -1.32778383089557
H           1.90078161801377    1.50064593287297   -0.49807329111875
O           1.50502893337345    1.04341501713255    2.34639054786095
H           0.64076867958653    0.87731204299158    1.90478547674164
H           1.35214668921636    0.92598424391965    3.28449572088310
O           2.88925650490384    0.04791098690568    0.30913777466588
H           3.80820924709129    0.31884528007405    0.30604356071339
H           2.49362511921429    0.39933656026046    1.13784027656052
N           0.71373192352532   -1.63875182871055   -0.01915067021375
H           1.64863036308951   -1.23168387874911   -0.14668989866311
H           0.75686448703738   -2.48256082604103    0.54163252279408
H           0.11920508195993   -0.89156070503423    0.47259782731219
