    26
        -50.46008898  Gyration_radius:  2.40493746642 Dipole_moment: 5.718
 S           0.17890960775009    0.37457455347495    1.59727729157750
O          -1.12511761179361    0.51488367386883    2.18936539341822
O           0.46610275352791   -0.97362643442291    1.11777338943531
O           0.24301989184904    1.29664100734796    0.31966717964620
O           1.29858631030195    0.83625128888254    2.42586823535950
O          -0.81418510186178    0.36153315002450   -2.83508763519667
H          -0.86263114033739   -0.45101151526199   -2.28401381718033
H           0.11771902872644    0.55315730808673   -2.95903566185950
O           1.85607574180062   -0.17077039367136   -1.21058733189416
H           1.32495386090077   -0.97000994740820   -1.30718890401307
H           1.25737564780508    0.47967932260385   -0.78497172019083
O          -0.94180262648508   -1.59728759925023   -0.99892846433826
H          -1.85343334494461   -1.50158956975499   -0.69735166892840
H          -0.41375405091117   -1.45025041436372   -0.18204325585657
O          -2.96643138180901   -0.39587550508412    0.57408322858586
H          -2.29482539939126   -0.12220202733759    1.24681146088044
H          -3.80856791774541   -0.39811771397401    1.03175598923715
O          -1.95561997991378    1.70657000921802   -0.82550071952351
H          -2.51551077370245    1.01258082823004   -0.42642804879218
H          -0.68691858638109    1.53768592652356   -0.07520963285998
H          -1.67373081216263    1.35633757049399   -1.70063140383574
N           3.07882006082015   -0.40727277494293    1.15172094358048
H           4.03358568124566   -0.07474893780694    1.24429839944009
H           2.72273857563565   -0.34415720220888    0.15418144508086
H           2.98377086416191   -1.36923827885715    1.46651130765376
H           2.35087071348038    0.19626366683384    1.76766399987476
