    26
        -50.45938500  Gyration_radius:  2.45598796097 Dipole_moment: 6.628
 S           0.59278112505630    0.39272439617238    0.55361062034139
O           0.38697552707967    1.21166246990591    1.74509538481001
O           1.17289680112888    1.17225049326870   -0.53895836443252
O           1.53812536114059   -0.74084221775129    0.93499938640574
O          -0.69300921406787   -0.18490270312395    0.12277366307554
O          -1.02285253444847   -2.86096118181526   -0.41072454439828
H          -1.11171575887004   -3.06098588971361    0.53036118689528
H          -1.10855398917723   -1.89517035001371   -0.45934439919676
O          -0.81033480500191   -1.84887521017204    2.28414836007087
H           0.07077883818585   -1.83458321431422    2.66356709760543
H          -0.80068153861777   -1.17264285933132    1.59029119492258
O          -0.35639308198198    3.27530485871336   -0.92182076577895
H           0.24953558250019    2.49414666593835   -0.88812517651922
H           0.19638633758595    4.03849839479039   -0.74290977175986
O           1.51461637610755   -0.43171758241208   -2.62033434611251
H           1.34390196383530    0.21474503897654   -1.90214545691825
H           2.33778415831226   -0.16192586248133   -3.03154551874079
O           1.55599457072535   -2.44771951370964   -0.87488040845223
H           0.63482317242548   -2.79977488290945   -0.79815129456972
H           1.55508411016769   -1.86188446209805   -1.66503774696141
H           1.60011077764673   -1.49222058709363    0.18049790325465
N          -1.82953263107606    2.02931485553497    0.86494275763168
H          -0.96719288261442    1.84099740124935    1.49515412272576
H          -1.88891613202593    1.10065319619932    0.40028770096723
H          -2.67824548424162    2.30886664686771    1.34502715694975
H          -1.48236665977562    2.71504209933203    0.14322125818514
