    26
        -50.46189854  Gyration_radius:  2.46078905363 Dipole_moment: 2.845
 S           0.21283827423014    0.77450387150027    0.24530334961509
O           1.45710678530191    0.11968910420526    0.60616972161641
O          -0.50489103849152    1.32120260868694    1.38503553649789
O          -0.65495821216566   -0.11795697701012   -0.53705444908208
O           0.62956790812922    1.93634326604382   -0.69718909007893
H          -0.20036517074868    2.41525433055347   -0.98496037392442
H          -0.16725274121639   -1.45325560790401   -0.88170989090728
O           1.07822636384014   -2.38153850779925    1.39473921272907
H           1.46464103991529   -1.48959200923055    1.27211219298291
H           0.26201976945840   -2.19312124952565    1.89872835812837
O          -2.87714563520851    1.38671115247258    0.19907577619465
H          -2.12231369917870    1.41039896554280    0.82048858612195
H          -2.76105094860836    0.55582438477956   -0.27350825490070
O          -1.58688617271553    3.13987307861431   -1.27798012307397
H          -1.62556564318008    3.97264922453924   -0.80259559149756
H          -2.21928292670834    2.52929421457102   -0.81672965306654
O          -0.99015992006182   -1.06445041224774    2.48801895032060
H          -1.20978384940912   -0.92438768062442    3.41114368392429
H          -0.82535261864081   -0.17858372762320    2.11003442948643
O           0.39836143497035   -2.31503333223982   -1.02050830266048
H           0.66502899982275   -2.53903551205102   -0.03308727804547
H           1.27863689415252   -1.89290646462713   -1.44430184629783
N           2.40331302925083   -0.95748579345623   -1.76476829145093
H           3.35219349452763   -1.30849403593787   -1.77146309432610
H           2.27754688245537   -0.36254422328973   -0.93865551540678
H           2.26552771026728   -0.38335865793500   -2.58633803290291
