    26
        -50.46627131  Gyration_radius:  2.44722874345 Dipole_moment: 4.310
 S          -0.35206560633052   -0.74934834588346    1.14938348856060
O          -1.16696481764542   -0.56876051422051   -0.05910809009968
O          -0.10880166538053    0.50094969304101    1.82616051146386
O           0.87829292853688   -1.46059948461394    0.80277895476867
O          -1.16979077796900   -1.65171044805260    2.12007827683736
H          -1.20115929417765   -2.50094241588508    1.64185850123329
H           2.05171552961764   -0.87088389783680   -0.33703322712350
O           2.37949981571680   -0.30490967087433   -1.06622674119441
H           2.30388216977031    0.60667523121214   -0.68674893088086
H           1.16955022634875   -0.31112420055942   -1.91643119858357
O           1.45812348365566    1.87023942099551    0.07270794271935
H           1.09120388191826    1.44566427629112    0.86622156241808
H           0.66979034736386    2.12168433566231   -0.44437933751901
O          -1.05557420449409    1.97422440406492   -1.03052563499527
H          -1.28972343326315    1.11526241464783   -0.63532601157877
H          -1.36368795590241    2.60928790426222   -0.36390647142721
O          -0.45722015882608   -3.68013950591030    0.55999291729467
H          -0.03062047128429   -4.42251119342769    0.99392413933756
H           0.21071878233894   -2.96409780447767    0.50886997145488
O          -1.46353006026250    2.84557392670998    1.52298568977895
H          -0.99253596073828    3.47957377418621    2.06607868392845
H          -1.07612599273827    1.97606595215710    1.73412029339310
N           0.13129079162914   -0.28185445741200   -2.29217503632183
H          -0.13409462442880    0.68086882710412   -2.50785885385744
H          -0.45294943170396   -0.56052057517275   -1.44464149291630
H          -0.02922351173892   -0.89866763600682   -3.08079992669839
