    26
        -50.45497953  Gyration_radius:  2.41631701883 Dipole_moment: 3.893
 S          -1.03658122777635    0.41546165277205    0.98766507823805
O           0.17920872223080    1.12962346496752    0.63882723113374
O          -0.90867075663656   -0.49745707767336    2.07545975981108
O          -1.52376446053058   -0.33177536352358   -0.26406921757748
O          -2.13452379701275    1.44386643426955    1.25183787233220
H          -2.02449856041813    2.13444424037885    0.50874235011103
H          -1.33580104563554   -1.37094129156163   -0.11169500525373
O           1.55528583185052   -2.20810504654590   -0.40847067469324
H           1.48385860320137   -1.48114208801503   -1.04601125377848
H           1.88019826772136   -1.79356576713919    0.42545789040725
O          -1.51024810246374    2.99028294320357   -0.65892881240906
H          -0.59909566529068    3.12969563359897   -0.38446961220940
H          -1.46376834727549    2.41551458868161   -1.46696647602708
O          -1.17204235272965    1.18760039166524   -2.57808459158611
H          -0.24960255161963    0.89169119814021   -2.49763328658341
H          -1.68877188894891    0.48385697024871   -2.17072992183913
O          -0.89480212512762   -2.64997674438108    0.29555546438229
H           0.06277109872275   -2.63666660862089   -0.02047318363265
H          -0.87098474009755   -2.48900778156830    1.24693999289594
O           1.28857820051939    0.32154460480706   -1.61883894842483
H           2.13310038362195    0.76390598549128   -1.72322657361012
H           0.91084096132376    0.63081274504035   -0.76617558444117
N           2.02971770683428   -0.79618596493896    1.85761337500267
H           1.52091175181473    0.03319007140998    1.56374603025106
H           2.90231913285476   -0.49888834437722    2.27726209773233
H           1.46636497101809   -1.21777883623443    2.58666599975665
