    26
        -50.44493009  Gyration_radius:  2.49516217795 Dipole_moment: 2.249
 S           0.51491520107523   -0.11269723385239    1.61578041555709
O           1.88386500422296    0.18352008231935    1.87567493154618
O           0.28414769492975   -1.28124537341118    0.79595706043728
O          -0.14968950905002    1.09956262987795    0.91149119462267
O          -0.27646929832693   -0.23972648133885    2.91193911550177
H          -1.26528209508217   -0.36816272313133    2.66997619760440
H           0.57449677709532    1.54448015683562    0.37530701001326
O          -2.23028191886945   -2.16093108922964    0.15706181783201
H          -1.28717702958615   -2.21067392511716    0.38019415734265
H          -2.24767840093723   -1.65624753493832   -0.66959953660129
O          -0.94595158441636   -0.40047522823392   -1.63102221166902
H          -0.49990746066017   -0.53354136023734   -0.78527507172541
H          -0.91301497932678    0.55355254270790   -1.80205492316020
O          -0.24692962770253    2.27167831445991   -2.18111102491380
H           0.03349908592791    2.47418303558922   -3.07510198919810
H           0.51163413764150    2.42472132932092   -1.60510026672681
O          -2.68482177021649   -0.66331148311542    2.25214537959104
H          -2.62399432567438   -1.21120675739287    1.41851215466482
H          -3.11638192914344   -1.21566250945533    2.90808969496576
O           1.92859428153486    1.88305671679887   -0.37272143942114
H           2.07658092150509    1.00258541611068   -0.84614651758188
H           2.49283028887838    1.84046206436971    0.40609640204439
N           2.08795818111010   -0.53856519185059   -1.38108426161869
H           2.93906172851502   -0.96379637245812   -1.72577786462684
H           1.35470886487464   -0.69223159862986   -2.06649737900975
H           1.80528775015078   -1.02932742744057   -0.53673307585235
