    26
        -50.45332923  Gyration_radius:  2.56555394923 Dipole_moment: 5.626
 S           0.09790892035445   -1.75894646853792    0.71074714742383
O          -0.41588523785083   -0.88450696526901    1.74810502185726
O           1.50861949032231   -1.51429030347588    0.43876220220587
O          -0.70448731750687   -1.65543717883595   -0.51315401150953
O          -0.00397335315155   -3.23277516808123    1.21306748023260
H          -0.96724418069289   -3.39337611156305    1.19666222692779
H          -0.41413400117680   -0.61870137518868   -1.77807003095883
O          -0.66835354910281    1.63303576455195    1.38745635624501
H          -0.56245252399801    0.64312054520384    1.49966658765816
H          -1.28431462814498    1.88794574533184    2.07696731976481
O          -0.09783363961087    0.12623180517316   -2.34133140665870
H           1.22581487385115    0.24324968664588   -1.80731496292730
H          -0.62884634608840    0.89870862172048   -2.05555854370662
O          -1.36743045331799    2.18027696027459   -1.16118928520776
H          -1.19282033975425    3.11622351936711   -1.26488741589922
H          -1.18975224319149    1.95612354962034   -0.22383802223032
O          -2.56185295970421   -3.17555262433156    0.52565604526384
H          -2.84165808862432   -3.83207148497902   -0.11630723095820
H          -2.08921342311406   -2.48080999406128    0.02199912017656
O           2.12246062884251    0.23324327156205   -1.22883416445396
H           1.96347459181374   -0.56064459157677   -0.58421410912613
H           2.10832735749251    1.06491023916018   -0.58766981289817
N           2.02003718142253    2.12549159243275    0.49468932142046
H           1.07837655495153    2.04775870940476    0.88164890891769
H           2.19366565739897    3.09020777198087    0.24436504364400
H           2.67156700860513    1.86058450348042    1.22257623482965
