    26
        -50.45332982  Gyration_radius:  2.56485763578 Dipole_moment: 5.622
 S           1.82279145907415    0.24715184770193    0.47746098790631
O           1.29835676525146    1.56584984589713    0.80917363051835
O           1.75986897723374   -0.02101282134738   -0.94706171504121
O           1.14222740367597   -0.80293512600301    1.24315492055185
O           3.32119441639058    0.24753577741557    0.91288920213860
H           3.56008098098461   -0.69661480166786    0.83986307794724
H          -0.45499672413348   -0.78716034396466    1.70064590682765
O          -0.46299469583376   -0.35456421596649   -2.16388509036390
H           0.39324700909646   -0.22474970902294   -1.66038964236313
H          -0.20217871440365   -0.80862249365957   -2.96737924491027
O          -1.41976889351210   -0.59711201560309    1.77293424904327
H          -1.82264447027213   -1.05347211277528    1.00500618217140
H          -1.37460821400007    0.81178161649327    1.51366403357686
O          -2.27013376886661   -1.58270384354893   -0.57891750418487
H          -1.57741919048322   -1.20876930798899   -1.16253554692274
H          -3.11249118363020   -1.43101538667794   -1.00868759716448
O          -1.14770310684019    1.81113100879511    1.21848417806008
H          -1.45602555245429    1.93707821613899    0.22192426432971
H          -0.11558455683686    1.79267050432471    1.14274978777231
O           3.19425460634767   -2.39869160769295    0.95084894303369
H           3.40059684649684   -2.82104295560365    1.78781833874002
H           2.28573789203601   -2.04285908351530    1.03787750771339
N          -1.69053480222263    2.08617906425263   -1.26927517193069
H          -2.63815933467928    2.21091192801502   -1.60084907263899
H          -1.29725431949589    1.24664509880059   -1.69711016539782
H          -1.13585884893572    2.87439089721487   -1.57840444941867
