    26
        -50.46716917  Gyration_radius:  2.43127054792 Dipole_moment: 8.931
 S          -0.08619033676533   -1.81332468998397    0.16087881274380
O           1.13965908849138   -1.02731823661144    0.20919111790740
O          -0.38264889115559   -2.25513667450137   -1.18530372922823
O          -1.21312584763854   -1.02539317906349    0.71140863962866
O           0.08555903856518   -3.04930626960558    1.07129157873869
H           0.08898622589469   -2.64614006120923    1.97781880872757
H          -1.44726614479251    0.22277690750072   -0.02274835162406
O          -0.21516333909924   -1.50976458809675    3.15227314673507
H           0.42613965714664   -0.77834784082679    3.15637535353201
H          -0.92825987040742   -1.19471059869654    2.57767484093706
O          -0.57362699060606   -0.25165018411301   -2.79314635804244
H          -0.88891724030672   -0.58282040154517   -3.63585045647627
H          -0.46237388468233   -1.05999340291288   -2.21426722254261
O           1.72275964336506    0.84764486478186   -1.55405487245721
H           1.70224788440166    0.09920165713301   -0.92039332333181
H           1.11309479868068    0.58164037064224   -2.25479410008906
O           1.18759873134167    0.68792748414454    2.24568623581078
H           0.97449381885285    1.52213092943140    1.81652182973953
H           1.30753183437428    0.05347976050001    1.51297245907636
O           0.57846764108360    2.59291167718779    0.00750035399629
H           0.87282231320765    3.48349821308579   -0.18713257479478
H           1.13612234212887    1.98168886331359   -0.55544208793005
N          -1.53861646195994    1.09798654243226   -0.66770949329542
H          -1.29510445858421    0.74791198841782   -1.61785633655653
H          -0.82501619820769    1.79997738630758   -0.35902583078462
H          -2.47917337330022    1.47512951235881   -0.63186847040185
