    26
        -50.44752743  Gyration_radius:  2.41663427047 Dipole_moment: 6.319
 S           1.26318047203328   -0.44551040309000    0.02599191276688
O           0.28902582294996   -1.45456137352487    0.39686693638980
O           2.01148811945507    0.08713531128970    1.11781899267631
O           0.50859125303768    0.67732509732435   -0.71884024446080
O           2.18731305375322   -0.99952877349601   -1.04319037626684
H           1.60558188414272   -1.59308342159922   -1.64529354931701
H          -0.20777141507338    1.09284546083433   -0.08225597837444
O          -0.03455327254100    0.14257194495142    2.83622607220590
H           0.85310548284807    0.20657872344111    2.44142469333409
H          -0.23242348013408   -0.79599041212031    2.87057689400281
O           0.51470499254755   -2.41761092357781   -2.28798622523975
H          -0.19509055668166   -1.77129426804289   -2.54155153110676
H           0.17271797706481   -2.91716663815020   -1.54093444723648
O          -1.27530249099824    1.42253482513841    0.87631975659536
H          -0.91282204543906    1.09408527787332    1.73429679453215
H          -1.97122465046025    0.79350892547936    0.62556073765531
O          -1.31493389795491   -0.52711551646292   -2.53411155841837
H          -1.88409201357441   -0.64784841792116   -1.75562797431458
H          -0.76592272888759    0.24041810202807   -2.34021231410018
O          -2.27322153890645   -0.98331466472015    0.02281368078863
H          -2.82663681671553   -1.69619406646120    0.34540491644209
H          -1.33922244252102   -1.23302828406810    0.21062421914540
N           1.59776186390950    3.15661736905651    0.83660700861770
H           0.64640186242960    3.15169161264823    1.18449032291096
H           2.03702689262386    2.29453344637428    1.13931413446913
H           1.54631767308654    3.12240109679520   -0.17433285370246
