    26
        -50.45875109  Gyration_radius:  2.52158135636 Dipole_moment: 10.917
 S           0.45896657644448    0.75058342103211   -0.67446001811382
O           1.61924008183154    0.87049783891603    0.16133012790997
O          -0.77204240685171    1.17792969260722   -0.01098568032825
O           0.24116162929588   -0.77035069050407   -1.03900657268789
O           0.59742622269363    1.38110744577866   -1.99078565538636
H          -0.33842812439529    0.72236648570056   -2.77173427852748
H           0.21981305407479   -1.28161209285208   -0.17914914841394
O           0.07782603348415   -1.99980185546513    1.22554902092574
H          -0.64529041384820   -2.62666595410118    1.27930607415190
O           1.89180093322766    1.01526358314428    2.93655114341414
H           2.40175743466726    0.19157227589488    2.86558357766623
H           1.91122860281977    1.37215319677530    2.03771706908819
O           2.81221749583429   -1.22434692521102    1.54982673398110
H           2.03848695162554   -1.79857396739438    1.54624549164407
H           2.60760728381033   -0.52070767381460    0.91568565432362
O          -2.90390644150175    0.61773159083819   -1.35198977142601
H          -3.47631216868609    1.38480443571628   -1.29243110172702
H          -2.13724630015189    0.80933535992173   -0.74530326967437
O          -0.58630643722711    0.13481514039291    2.46560530481123
H           0.25618974855555    0.49436584015599    2.83223865864270
H          -0.75617077249892    0.65790123114485    1.66148748117407
H          -0.19007939177921   -1.21014661842150    1.80755604106351
N          -1.15342644487235    0.10110032936755   -3.24421220726030
H          -1.31644443478110    0.33904534801651   -4.21702232621522
H          -1.99818813999724    0.27858381779990   -2.62972711624594
H          -0.85988057177632   -0.86695128543622   -3.13787523279525
