    26
        -50.45875115  Gyration_radius:  2.52129928866 Dipole_moment: 10.920
 S           0.36483236023648   -0.72045633707174    0.76058683876643
O          -0.90920230199769   -0.75258602982846    1.42016687587134
O           0.99543034262420    0.59842005499595    0.79596868232619
O           0.16182890549032   -1.05531390601024   -0.76914952275866
O           1.29629073773377   -1.76449556032498    1.19854516021776
H           2.17505512199896   -1.88930879008170    0.13474503110719
H          -0.53178648857887   -0.42580674425678   -1.12124670955194
O          -1.54534597834229    0.68056479492942   -1.62812329959552
H          -1.30446149952125    1.08668323347841   -2.46227997260020
O          -2.71023398721538    1.28241916202596    2.05757338063916
H          -3.33997029507378    0.82127701970790    1.47941816736086
H          -2.04954262371200    0.60514120837536    2.25896404123654
O          -3.37552900084362   -0.63056463391288    0.13721390477432
H          -2.58505122240183   -0.92253081883827    0.61568849004950
H          -3.04443255111505   -0.23209294091858   -0.67520131981421
O           3.08943136794386    0.77010255978203   -0.70154042306949
H           3.74740332114473    1.25541843473184   -0.20039457049819
H           2.25799485853132    0.80496222694812   -0.15385444708517
O          -1.01488191907355    2.31166770673471    0.26760793500474
H          -0.21481801903105    1.84396535797858    0.56801952639505
H          -1.40748809017035    1.39429672580529   -0.91708755374976
H          -1.69265366550711    2.13159313152239    0.96163677634655
N           2.79794400439293   -1.84060705157186   -0.80499598655369
H           3.09077220283876   -0.82398464550403   -0.86446779936431
H           2.16129831446903   -2.05059225568169   -1.56997354740534
H           3.58711613517546   -2.47817189300477   -0.78781965805153
