    26
        -50.46443319  Gyration_radius:  2.44673451046 Dipole_moment: 6.623
 S          -1.50014767819146    0.17447298536190   -1.28969782494277
O          -2.67691284798428   -0.62181506391089   -1.07907549333283
O          -0.45450614053032   -0.53109819556546   -2.06053653771110
O          -0.91118909702141    0.66223930351943   -0.04856305962167
O          -1.91288299194963    1.43295530054474   -2.12732034219989
H          -1.07144848386595    1.90959243758017   -2.23655781532867
H          -0.24563693575251    0.92668594721600    1.35841400663005
O           0.31282848932985    1.09768643124049    2.15823152701418
H          -0.17229697016131    1.74080921833671    2.67726957099337
O          -2.29145053318275   -1.91331958759476    1.18475050426691
H          -2.46089503183874   -1.35745112544222    0.39078916000918
H          -2.73953621123276   -2.74421950410403    1.01668512240340
O           2.24754181048677    1.38620927462956    0.28995777333403
H           3.02484082827249    1.84722041626088    0.60840700825482
H           1.58780988987207    1.39266842127926    1.01673859977791
O           0.74937198037223    1.85664426593258   -2.19078443780495
H           0.52566656579236    0.92385866738336   -2.34591742386078
H           1.19533185287233    1.88027032659709   -1.33387095028073
O           0.26005286604172   -1.69394001472751    1.90229221280191
H          -0.69191853673000   -1.83557780514099    1.68907617145945
H           0.94905170821583   -1.45625520874798    0.54779152819420
H           0.29697898648181   -0.80747239629665    2.29274075313567
N           1.40964495335273   -1.16055789800856   -0.38181139797875
H           1.90116784915559   -0.26595685105518   -0.21914523045845
H           0.62619045330605   -0.97070177406441   -1.09059462205770
H           2.04234323488734   -1.87294757120441   -0.72926880269805
