    26
        -50.47045893  Gyration_radius:  2.47496890842 Dipole_moment: 3.915
 S           0.58210301076730   -0.41275918492111   -0.72227166012984
O           0.69416588172026   -1.67680588510088   -1.61024602501261
O          -0.72831851049452   -0.43324379967396   -0.07681206273046
O           1.64085559154848   -0.52821693115273    0.28366691862503
O           0.74630693650565    0.76817557664624   -1.55353713132043
O          -2.58397672894138   -0.31713918312846   -1.96231962145943
H          -3.22485115692403   -0.99652653882989   -1.74669303469572
H          -1.95439279349967   -0.28482170911067   -1.21019893067320
O           0.76066695998787   -2.29603059161709    2.09549390116305
H           1.17212633304248   -1.73143983485875    1.41086433140832
H           0.48437889685799   -3.09480948052240    1.64394763286882
O          -0.98445349745130   -0.27871156079673    2.57422352340622
H          -1.17046819246834   -0.30070646031882    1.61412958506335
H          -0.47710801169899   -1.10192694579890    2.71489878778943
O           0.37077361607912    2.84949414128460    0.00388446517441
H           0.43880480585269    2.09224355651362   -0.62514462677008
H           0.77708219428739    3.59617370937251   -0.43934234762566
O          -0.46236606316748   -0.53740867102626   -3.58584506553949
H           0.26640846525917   -1.40138240667810   -2.47700235173206
H          -1.37120076399127   -0.46712848412976   -3.22514618889704
H          -0.00977127391689    0.25766508951135   -3.26781614995173
N           1.02414623309186    1.28655752600443    2.06297624734414
H           1.65857777076560    1.58027422004802    2.79739075717702
H           0.15381080820229    0.77423266316266    2.44287584751559
H           0.73390690960676    2.07722713945277    1.44505996014821
H           1.46279257897441    0.57701404566384    1.41296322884833
