    26
        -50.45958879  Gyration_radius:  2.41995869834 Dipole_moment: 7.267
 S          -1.53731373519984   -0.27534465572586   -1.00813359936373
O          -1.09716842497041   -1.27117957497768   -0.03025892346318
O          -1.25558591788606   -0.64551329369866   -2.36608922084686
O          -1.06588875084596    1.05064626057684   -0.62835819504243
O          -3.11707452825859   -0.20583762524083   -0.88139587489346
H          -3.36007029603498   -0.80138095835121   -1.58092360311577
H           0.53885671285931    1.26848628216049   -0.74708987064196
O           1.52233228017276    1.34518208497159   -0.77731098492588
H           1.72189558494280    2.22670028046735   -1.09506744138650
O           1.44254798492839   -0.90948363154428   -2.48221327008943
H           1.68369714373242   -0.07565897922166   -2.05571839978143
H           0.47844563741100   -0.87242876900609   -2.61043149010818
O          -0.19370192077171   -0.45064868532445    2.18273612359646
H          -0.63751482494669   -0.84756531686253    1.35510274186688
H          -0.55846886156810    0.53182147568807    2.23343818992810
O           1.43157917642913   -2.40596936157165   -0.26669951716887
H           0.47331310496076   -2.31373629542732   -0.16048959292664
H           1.60871621215399   -2.04714510694852   -1.16371228819844
O           2.09907554591600   -0.40513006176675    1.24849741248168
H           2.07345316787018    0.29932447810633    0.57646528893274
H           0.85177333566344   -0.41038914171642    1.88230744735616
H           2.01656903181820   -1.25808628670384    0.72472699418560
N          -1.16712485857330    1.90184095142407    2.01521052698330
H          -1.27530456412135    1.81184181108525    1.00066457593247
H          -0.59573086542023    2.71287498051214    2.21208812996283
H          -2.08130735027852    2.04677915913513    2.42265485072882
