    26
        -50.47636619  Gyration_radius:  2.42279808417 Dipole_moment: 2.571
 S           0.41803840946164   -1.50695956452338   -0.32148802550471
O           1.27131740073604   -1.38969599676574    0.84727813354692
O           0.87204104446810   -0.66973707020530   -1.42366412981346
O          -0.97836973515176   -1.22297194996454    0.02452235260102
O           0.47829537309939   -2.97710068219255   -0.84053266775699
H           0.17989371103068   -3.49280364598654   -0.06747088871884
H          -1.18158879735402    0.17139978822932    0.83534762486862
O          -1.28277222656880    1.02362461985055    1.32859028558767
H          -2.04522815672295    0.91478502059724    1.89915012031956
O           1.45199492086079    1.09198973957430    1.77791097813821
H           1.52981400646136    0.13664862958384    1.56810815368533
H           0.50061618867427    1.23368834546514    1.90917976177286
O          -0.42917465986645   -3.36857328757637    1.61362288062508
H           0.34945514220255   -2.86067591119492    1.87879412456168
H          -1.06596628160709   -2.70614774944847    1.31286692304531
O          -1.48236793701329    0.31069871445861   -2.27282834185182
H          -0.58896237764060   -0.06966369636987   -2.19270047707414
H          -2.01141248512929   -0.22594766320381   -1.67447177786472
O          -0.96364125906916    2.57365493242106   -0.93834242374740
H           0.57469059175314    2.28240876583442   -0.89167685732938
H          -1.26777080084413    1.88161335509028   -1.56963783466105
H          -1.22750295961918    2.24130461364070   -0.06356977519470
N           1.52535301374995    1.80658811013944   -0.74192711909350
H           2.29022932348487    2.31035250616096   -1.17539719195460
H           1.42667937810288    0.83710494204285   -1.12904506006054
H           1.65633916249393    1.67441513436264    0.30738123186099
