    26
        -50.46485771  Gyration_radius:  2.56554542271 Dipole_moment: 4.114
 S          -0.80888712612254    0.41411757860106    0.17640580660205
O          -0.11502140618918   -0.47933672013831   -0.75608054362660
O           0.14784122681604    1.09630866000452    1.04181995018052
O          -1.65328949199359    1.36296249307503   -0.53862476339541
O          -1.73221622807602   -0.45061133696627    1.07292196293986
O           1.20745792150872   -2.35408019477864    2.72084356598417
H           0.85000395267928   -1.48940980167776    3.03205882486913
H           1.22162721028587   -2.93012004262197    3.48655773022360
O          -0.27495559146191   -0.20958921312029   -3.36850282873021
H          -0.17731618879340   -0.42531289465521   -2.41025701945162
H          -1.10234489017772   -0.60863139792926   -3.64226271737613
O          -0.04120532123115   -0.09168717555843    3.40486306536722
H          -0.98760578644040   -0.25695955131142    3.39168681201984
H           0.12658748698942    0.45392897256218    2.60868950401045
O           1.95167409616330    1.64462313172506   -0.76513910776739
H           1.37251025370875    1.52074464585578    0.02469775930097
H           2.24309201451341    0.75813005365656   -0.99417628557816
H           0.84914912003745    2.14415458968148   -1.82620439102348
O          -0.53593218897923   -2.66147407008944    0.72554968069618
H          -0.12731160827836   -2.19450898377074   -0.01998701786229
H           0.14576989991817   -2.67852349722054    1.43730968532129
H          -1.37253723110571   -1.39798284544106    1.00564820258773
N          -0.06516441978649    2.23392809594623   -2.35785442487247
H          -0.11987170801505    1.43887628955208   -3.03559127928509
H          -0.18216534359857    3.14229900230596   -2.79227515004814
H          -0.81988864240186    2.01815422233789   -1.62209702108974
