    26
        -50.45706952  Gyration_radius:  2.5250255191 Dipole_moment: 10.122
 S           0.72193379296885    0.53088968369231   -0.49825278384411
O           0.65888391344350    0.59884179271985    0.96315045042184
O          -0.33258286416550    1.24770247971021   -1.15478159788911
O           0.59855466684056   -0.99970226344637   -0.85295238890680
O           2.06444599320895    0.89359948446696   -0.96671794736944
H           3.01688788428200    0.42548607731171   -0.09304704075847
H          -0.36396753055226   -1.24016996734489   -0.74424286035100
O          -1.86968960231295   -1.57679035748298   -0.34597693487365
H          -2.03769454002977   -2.42405473142959    0.06977995195898
O           1.85105976836084   -1.60861591088193    1.60791154989480
H           1.28737111778951   -0.79581649771391    1.55335017760758
H           1.54040078379188   -2.16622588477405    0.88794891901476
O          -2.71115954636170    0.33028525241334   -2.29609599789595
H          -2.68870923685948   -0.50572962783646   -1.81692082307295
H          -1.82260511383987    0.69921545171775   -2.18854216456139
O          -2.78462737105033    2.20512778584469   -0.23690343531116
H          -1.86172249356995    2.28853434278541   -0.51468132862027
H          -3.19112020525046    1.69053577182314   -0.95385169615044
O          -1.97874614516936    0.27194631147623    1.41654727554814
H          -1.03134700784962    0.49760928872772    1.42199662498329
H          -2.41833134000711    1.02860809843088    0.96012633076839
H          -2.01241000453741   -0.87265189938062    0.37309472927657
N           3.71984996478049   -0.02471655003100    0.67809928184716
H           3.12653606827971   -0.77722040864207    1.14326556777710
H           3.97060709551757    0.69002640806697    1.35387536718807
H           4.54818194228154   -0.40671413023367    0.23382081332508
