    26
        -50.46970036  Gyration_radius:  2.58935661581 Dipole_moment: 2.421
 S          -0.09525865907768    1.28384575173049   -1.03597590613463
O           1.34244761209244    1.12957113825623   -1.04453758245303
O          -0.61481440979901    1.32059003587206    0.32940208348080
O          -0.75821404643249    0.24201385230986   -1.82857058628331
O          -0.46667886099789    2.65937933550694   -1.67131548313333
H          -0.30510176939001    2.51773855323973   -2.62451863653958
H          -0.48374932369320   -1.17535828641878   -1.11919354604161
O          -0.29906053932847   -2.02042330926933   -0.63444485386498
H          -0.47450526294773   -2.72647760269735   -1.25907540679056
O          -0.52361986081491   -1.04972720728494    3.53743054571984
H          -0.38256240787234   -1.98572581391665    3.68711617541949
H          -1.18947809023634   -0.98366136290637    2.80185300982769
O          -0.32577322994172    1.54172056171469   -4.06503517012385
H          -0.46812285247701    0.83588293507224   -3.40232157732976
H          -1.13163458966150    1.59699823741504   -4.58374918543461
O          -1.91599466760042   -0.85727924736660    1.31437765027411
H          -1.48204973991784   -1.47149857955542    0.70180395087730
H          -1.67675366292007    0.02453186014789    0.97778793492513
O           2.15182630822265   -1.05761194522181    0.16891093684711
H           2.05993961548672   -0.27786253916050   -0.42312888820587
H           1.68331470320586   -0.23519651989275    1.42862221247084
H           1.39827767486927   -1.62537400185599   -0.06884987361350
N           1.14504959669645    0.42600854716834    2.07553193067405
H           1.76149146122627    1.09735288698736    2.51888608929615
H           0.59223423132661   -0.12634313623926    2.78066080012944
H           0.45879077995563    0.91690584632880    1.43833338600964
