    26
        -50.47215815  Gyration_radius:  2.43221479679 Dipole_moment: 2.533
 S           0.93993620793093    1.00174299497058    0.68923112645366
O           1.34409563652572    0.30959038101660   -0.54386290129024
O           0.50929146947567    0.05554344193504    1.70061406352039
O          -0.03755493811202    2.03788148565796    0.40526399381596
O           2.23039780930549    1.68334907835016    1.25089793521464
H           2.46111254126858    2.32301526402345    0.54789176345950
H          -1.55074994945915    1.52861133305947   -0.00037378731491
O          -2.40486980785487    1.13608447104217   -0.29490396712094
H          -3.03543008646132    1.85687151929332   -0.33301600987177
O          -1.06770442067513   -2.72183558734208   -0.40951477674171
H          -1.57454107484539   -2.27191392139416    0.31165554126374
H           0.28672867918587   -2.52015602539022    0.06697896678824
O          -1.99440264048791   -1.02393328510962    1.39729365735651
H          -1.16142946556161   -0.62855284822179    1.70368375627346
H          -2.40737094842206   -0.33481488063493    0.85388311384095
O           2.02856997322134    2.98168865176888   -1.03814959746060
H           2.08814726292431    2.17183694576652   -1.55588717233782
H           1.11315362354131    3.01219826252522   -0.71942321429939
O          -0.86928061337480   -0.53951789462751   -1.90749730854857
H          -1.57293789362774    0.02411347814803   -1.55223967589944
H          -0.04200342152941   -0.17848394513119   -1.54547403766964
H          -1.09001968539828   -2.06954922451474   -1.15079739460524
N           1.25581104071626   -2.11132979546909    0.44506632021433
H           1.03843625715934   -1.56965467253543    1.30360157754906
H           1.53401825273290   -1.34387904361619   -0.20478725684235
H           1.97859620181131   -2.80890618359386    0.57986526426681
