    26
        -50.46970020  Gyration_radius:  2.58937493292 Dipole_moment: 2.424
 S          -1.50161432098941    0.14008216166202    0.67574939282703
O          -1.65850787398226    1.13543912316077   -0.36132047842736
O          -0.26651635695653    0.35043319709800    1.42798696701240
O          -1.56856629397508   -1.22256748107591    0.13541648066345
O          -2.66115496053119    0.28894449598763    1.70853459347477
H          -3.43491632157518   -0.07026412563214    1.23195891808038
H          -0.31051381764242   -1.43354605979642   -0.84450417577872
O           0.48963493852259   -1.51793806544480   -1.42401673261022
H           0.32717556441656   -2.27530491990232   -1.98914967557517
O           1.84647950654090   -1.31069570761587    1.00106175401507
H           1.55272996261866   -1.55711316038483    0.11007124410130
H           1.08956501619723   -0.82704659054336    1.37693571974986
O           3.63099201398822    0.58006634031694    0.60397917510721
H           3.07174450532073   -0.19819128961968    0.86933051123819
H           4.19271839896219    0.27466870625927   -0.10991401395980
O          -4.19072117880607   -1.19588722073715    0.14190767784665
H          -4.53404780448174   -1.99266428802871    0.55274931694761
H          -3.25468710881348   -1.37697982962303   -0.07878358099940
O           0.32411112647880    1.14916648076157   -2.08802687785292
H           1.07711649731909    1.75066070884540   -0.84090930418679
H           0.51548278316522    0.19532765615775   -2.07502799792539
H          -0.55046270796116    1.22384033624671   -1.64484915965159
N           1.39380145931370    1.95732484489925    0.16013309884061
H           1.35029996545563    2.94853861152115    0.36744319238547
H           2.35545497997222    1.56255972150158    0.32567872584735
H           0.71440203742901    1.42114633397800    0.76756523883361
