    26
        -50.47319280  Gyration_radius:  2.45092340776 Dipole_moment: 1.782
 S          -1.08475178286578    0.62887120675320    0.92937240202910
O          -1.83338358813189   -0.59027456556896    0.75513340196236
O          -1.05551152626891    1.43940665121605   -0.28391436662873
O           0.28401025413940    0.35146474329096    1.40348428625127
O          -1.76800758411134    1.51274221515491    2.01694266345251
H          -1.62766345478857    1.00882431987170    2.84038350749076
H           0.95495012147590   -0.86234348244412    0.52458426937985
O           1.37134132346257   -1.57824032019118   -0.01338515829314
H           1.87739657474232   -2.11305890492610    0.60026454019887
O           1.91881451031079    0.10333776549270   -2.15542299816675
H           1.96537209317858   -0.61520648317765   -1.50423562416414
H           1.94781652521011    0.92924450036614   -1.61948341926721
O           1.53991895755890    2.08082874870709   -0.38930360547337
H           1.73493291920033    1.66687586741662    0.45740893335064
H           0.56518050871480    2.07254298091817   -0.42482273205956
O          -0.59294566910718    0.01463532427075    3.86107696562130
H          -0.05010475063042    0.49134682926814    4.49318797303785
H          -0.08307903631226   -0.03392085351535    3.02857688815729
O          -1.06674985095433   -2.24907840730712   -1.14997646612413
H          -0.15515705669724   -2.34498154563688   -0.82989739895145
H          -1.52595220550852   -1.78716426203974   -0.41473413841777
H          -0.92103999227019   -0.99721634926832   -2.10620188546698
N          -0.67969542402070   -0.01873473241835   -2.46164894775406
H          -0.96359057777582    0.63869007708330   -1.69368985479660
H          -1.13897085022169    0.20575644972548   -3.33650790622899
H           0.38686955163659    0.04565223705487   -2.52719131914512
