    26
        -50.47061304  Gyration_radius:  2.42516282168 Dipole_moment: 4.971
 S          -1.48740299136575   -1.37597852835527   -0.25099434633565
O          -0.54954400449603   -1.66483879133834    0.83763710396736
O          -0.81620300476106   -1.24469618236121   -1.51792403273445
O          -2.35507445910017   -0.25634653054066    0.07960993605292
O          -2.45582800750651   -2.62637266588678   -0.34267397042093
H          -3.26136296420987   -2.25377235724316   -0.00131633858347
H          -1.90232938954693    0.92950074564690   -1.04823265469405
O          -1.49708900419212    1.46290223867270   -1.75837790265019
H          -1.30016979416293    0.82088441445353   -2.44725332781925
O          -0.99020148020831    0.48689383937634    2.27399017506606
H          -1.74952715481986    0.76426688495291    1.74570045648106
H          -0.82546434652207   -0.42088887183413    1.93820074300315
O           1.70631344690959   -0.36773266278426   -1.85994517629048
H           2.11225464301821   -0.76365494691127   -1.07845745549139
H           0.80511356729101   -0.74197619185526   -1.88713403476500
O           2.02042050247073   -1.26453181846151    0.80208396250278
H           1.05346600069772   -1.48157437463608    0.76134956757009
H           2.43356223268744   -1.99246728765270    1.26840378407224
O           1.01294719217372    2.07875951834673   -1.11660714128523
H           1.39388826986563    1.27439916112065   -1.54677652720586
H           0.05524295287092    2.03832369296504   -1.34660442635441
H           1.18447127125795    1.73530650396676    0.30579441294878
N           1.33323840570759    1.33469715215157    1.32066837537461
H           1.80514304363624    0.41763386959955    1.21796574672766
H           0.39068091737188    1.14216501554417    1.76263644832424
H           1.88345416493780    1.96909818305588    1.88825663254583
