    26
        -50.46899347  Gyration_radius:  2.38325620792 Dipole_moment: 5.751
 S          -1.27561036669099   -0.04666322831765    0.82181060392382
O          -0.95452043944047   -1.07875039130987    1.77460681490269
O          -1.10538335769438   -0.54386882497176   -0.56250033202404
O          -0.43919828069955    1.14331196228176    1.00067370897802
O          -2.74871588799635    0.36315287034165    0.99235590601326
H          -2.95201364619053    0.84163891387585    0.14047897049203
H           1.11483074130733    0.85208403092882    1.28252545628426
O           2.08180607628976    0.63082845078000    1.29165558567448
H           2.49804537480960    1.28500983307977    1.85500911472506
O           1.38935803010029    0.28809850275069   -1.40442370453970
H           1.84777438350244    0.55887207858814   -0.59458094695317
H           0.44730021152393    0.23439735585653   -1.16522321889156
O          -2.85225590294111    1.34654213658024   -1.38636787725498
H          -2.36922009486449    0.54166215482996   -1.61735991404982
H          -2.17932235976276    2.05962583836926   -1.40566387773258
O          -0.55394361535157    2.72317074988497   -1.13587223984091
H           0.18654888508098    2.40881611462283   -1.66239046151068
H          -0.47876672345529    2.27975690621523   -0.26624304126470
O           1.51026911318625   -1.99108191943447    1.77086208947562
H           0.57946278208377   -1.77026625085733    2.00192917445646
H           1.23383204495884   -2.28986718077135    0.30713611843750
H           1.95750800116188   -1.12472423780882    1.74635726415229
N           0.87118747871178   -2.24264528729693   -0.71800423295146
H           1.42801468772002   -1.53347432834981   -1.23517993085612
H          -0.08400840436205   -1.79087651134272   -0.65194368266451
H           0.84702126900460   -3.14474976853098   -1.17964733697634
