    26
        -50.46899345  Gyration_radius:  2.38337125044 Dipole_moment: 5.750
 S           0.60322287484919   -1.04292546677477   -0.92297808570661
O           0.90411893562701   -0.86703474137328    0.51607995446541
O           1.47806078817158   -0.22835131897175   -1.72746709728310
O          -0.80824229569919   -0.72159000392607   -1.15140896815751
O           0.82737809121650   -2.52527488211451   -1.26867001868834
H           0.41812127797725   -3.00399365293240   -0.49453255774828
H          -1.14439561841984    0.84526358335841   -1.26126518767367
O          -1.32737602046924    1.81495894110386   -1.16028468626634
H          -2.05663039744392    2.00987562075145   -1.75083102435002
O          -2.34052402695183   -1.70968544640504    0.78506272709073
H          -2.38177772723766   -0.97728537750153    1.40657836904474
H          -1.91092992412989   -1.35941113271529   -0.02193618056166
O          -0.90629007759378    0.98025748299950    1.48419630726370
H          -1.28669120566389    1.39382451019171    0.69452098223896
H          -0.46642768325405    0.17122400424998    1.16858033158735
O          -0.17826098222133   -3.30064434252684    0.97272798288130
H           0.35024894650128   -2.57439156104932    1.33017198018584
H          -1.10072568695422   -2.96796065058849    0.97658139024268
O           1.32900710985938    2.37578026768094   -1.40516993110536
H           1.62104021577859    2.05691842455371    0.05136927234170
H           1.51286997529757    1.46925070807065   -1.74127789056190
H           0.35646855768613    2.44316531651396   -1.43349521574397
N           1.65829640673095    1.57960089795936    1.02879459231371
H           0.75455905504471    1.74622861816613    1.51461823160440
H           2.46379040521688    1.85197331495623    1.58063800226683
H           1.63108901608143    0.54022692632529    0.82939671031732
