    26
        -50.46143212  Gyration_radius:  2.46461537259 Dipole_moment: 6.483
 S           1.58270831553233   -1.29154975978576    0.08262637677799
O           0.46344782405958   -2.10936666806623   -0.32968936467638
O           1.52494666147879   -1.00189621996333    1.51409553682513
O           1.75680543887992   -0.08063402480252   -0.70490757142407
O           2.89940485790639   -2.13673257577045   -0.16374390208757
H           3.47566973195786   -1.53790398165511   -0.62905649653294
H           1.04830420711963    1.02484950323494    0.28379100865613
O           0.58081151507245    1.59315921559022    0.93822189042712
H           1.04173740378155    1.44054308414956    1.76598355742247
O          -0.62966621216144    3.17204671996823   -1.01990408545340
H          -1.55567539927174    3.02676026561434   -0.81414996458692
H          -0.12338188569922    2.84484361558736   -0.26278672890303
O          -1.54616893539016   -0.62368959473515   -1.41655620767618
H          -1.08291420642921   -0.00116587915474   -2.02437687885140
H          -0.86516954032040   -1.27441418029153   -1.17737044623640
O           0.10862820310180    1.05966626449936   -2.65093654792865
H           0.84178463739025    0.70512053979946   -2.12750696357389
H          -0.09842956308687    1.92917455160386   -2.26406266594612
O          -1.88825672112758    0.47365009008096    0.90449733234200
H          -1.07602106770605    1.01696971689819    0.95762706067272
H          -1.90574084872841    0.13001403022338   -0.03813370175056
H          -1.46477826334964   -0.77679284475055    1.56399317799510
N          -0.93526774439154   -1.69723170786138    1.87431858047394
H          -0.92489964136183   -2.32859366326807    1.06571849424187
H          -1.31678901920823   -2.13181383950471    2.70739906333143
H           0.08891023196101   -1.42501265763549    1.96490944645296
