    26
        -50.44964320  Gyration_radius:  2.49674941872 Dipole_moment: 4.511
 S          -2.05230992220017    0.42653177104667    0.31801547120535
O          -1.14297330124082    1.18531893598739   -0.54806016940406
O          -1.48234669588412    0.11929093863427    1.60092667801359
O          -2.58495344352549   -0.72706616635006   -0.39305715095084
O          -3.28390121245443    1.38170545143938    0.58193062760288
H          -3.74164581215687    1.35859682521003   -0.25190982581320
H          -1.54190404885497   -1.77558180396625   -0.88012870735057
O          -0.78480276755965   -2.31908233005026   -1.25024740335141
H          -1.18394741082424   -2.98771439452161   -1.80987301519652
O           2.45972455645511    0.17199434827926    1.10763507728285
H           1.90310298251448    0.95743679204747    1.35167380503417
H           1.87564354561854   -0.59496139195972    1.27172532291346
O           2.61531323016816    0.11700437443007   -1.39962629305860
H           2.59391236304040    0.20002934487016   -0.36096741753322
H           3.12939154050221   -0.66958602200982   -1.59205572982783
O           0.49857872546374   -1.68436495598440    1.20743930990196
H          -0.22527357811876   -1.10120679903845    1.49705917481043
H           0.16053231493936   -2.17537810963116    0.45084153018337
O           0.26308412361340   -0.12655657244374   -2.12452069154482
H          -0.31145898618426    0.49177861064386   -1.50965987754634
H           1.30818387967382    0.00058586864010   -1.82000254129371
H          -0.03549729114960   -1.05618824756755   -1.87890821652443
N           0.63651099590806    2.07075553336491    1.59509151459356
H           0.65507164311676    2.76979484679177    2.32679491588496
H          -0.13506949953132    1.43463698814479    1.78699081303949
H           0.40703407866788    2.53222617399956    0.72289278893648
