    26
        -50.45082212  Gyration_radius:  2.58239371896 Dipole_moment: 7.359
 S           0.27085053877558    0.91858987386386   -0.55391486957651
O           0.21362789232334    1.23417337889835    0.85214070338636
O          -0.96510947011602    1.02266487124663   -1.26107726163058
O           0.82165075839129   -0.53470129177387   -0.69360332584895
O           1.35557903555798    1.73956668657946   -1.22973524694058
H           2.06137879966907    1.92370047531188   -0.49121676119616
H           0.09531740067613   -1.19183513663520   -0.41589872781422
O          -1.03665905453618   -2.05990640894198    0.13009064773969
H          -0.75343532828594   -2.81060676497601    0.65574162411502
O           2.82953536527332    1.95348199017764    0.77776674667688
H           3.25612619968085    1.05437291403191    0.77086344141104
H           2.04335747962506    1.87672271535604    1.33655039742597
O          -2.75040439019272   -1.03561419531811   -1.92568620313083
H          -2.11317265984054   -0.31444064129674   -2.01980233136416
H          -2.31384799464474   -1.69050194972778   -1.36970478364789
O          -3.58627019330062    0.84913989182370   -0.10830502026350
H          -2.91171435591347    1.41855817800245   -0.49517449625572
H          -3.66168337204738    0.11075733020461   -0.74035495570548
O          -1.92804132844229   -0.23426534432134    1.65878992731237
H          -2.67704343216700    0.17240781073015    1.15582934480862
H          -1.46657925127195   -1.39817037675443    0.78056684055244
H          -1.19605889537409    0.39984562900639    1.58412954040557
N           3.59213736134827   -0.59535418002130    0.48568301513442
H           3.68086545130574   -1.22842807931151    1.27024633411197
H           4.38729165223956   -0.73911745501071   -0.12365039472950
H           2.75230177127601   -0.84103994119513   -0.03027417496020
