    26
        -50.46819508  Gyration_radius:  2.42368264384 Dipole_moment: 4.174
 S           1.89740469002992    0.36793970415554   -0.40978111051270
O           2.46350847456735   -0.69309637920067    0.39231528091362
O           1.15427923988454    1.34023261365133    0.39114133924918
O           1.10167936120158   -0.12494394073337   -1.51575514614415
O           3.11456445878203    1.17167650690345   -1.02158950864193
H           3.71485616252481    0.46358377736926   -1.22735681229470
H          -0.12798523924925   -1.12065658950477   -0.95331978711361
O          -0.91897794973796   -1.64088077777814   -0.68909825673472
H          -1.46095131769755   -1.63060148821728   -1.48884970347388
O          -1.15911063522023    2.08706153383651   -0.67743662584231
H          -0.26504826986293    1.82391251533855   -0.36548927267474
H          -1.14242160273460    3.04015434060467   -0.77226244058976
O          -1.40369611047298    0.16177354311440   -2.79066594725211
H          -0.44615475772924    0.05374771374643   -2.73937308704873
H          -1.58789322570082    0.90484373674160   -2.20184335635379
O          -2.30435345474685    0.11199407181587    0.83609083628243
H          -1.97495084340725   -0.62523784991984    0.27692006073532
H          -2.15156493395181    0.90870027985079    0.29972871523377
O           0.69327246164907   -2.32069674414011    1.50354308099374
H           0.17257487560041   -0.97795895198037    2.15977178027201
H           0.07764087528960   -2.47875892796535    0.77356517139369
H           1.48162719909593   -1.90320038414294    1.09515666901526
N          -0.14910588658811    0.03171490436244    2.29582291694717
H           0.47152043428396    0.62461488273584    1.69526489151565
H          -0.12050806059830    0.31761283678931    3.26753983671856
H          -1.13020592522583    0.10646907259383    1.86596048545070
