    26
        -50.45831372  Gyration_radius:  2.47995070452 Dipole_moment: 5.163
 S           0.77656757878513    0.74326482949022   -1.59800232441033
O           1.93315361825477    0.78744225356433   -0.71206868484758
O          -0.14554205704324    1.82768196947433   -1.43065025565111
O           0.14920911477757   -0.58490698893056   -1.52432541170617
O           1.34324419503515    0.85116858054136   -3.07307450186933
H           1.99299619438303    0.15758592793464   -3.13140646372940
H           0.20538070615018   -1.46025624602246   -0.27175878405195
O           0.27578176889879   -1.91279314845590    0.63446071311768
H           1.24889879137536   -1.66244524346666    0.97511757465587
O           0.37162457280552    1.68624006659492    1.26642791691312
H          -0.20681261241504    2.26179856548424    0.75590157069089
H           1.05142025074216    1.41578067771843    0.62261804273444
O          -3.26893797313743    0.03116930344213    0.59996191806586
H          -3.98418412952072   -0.60373032879536    0.54948374199319
H          -2.97744676012527    0.19444783239217   -0.33159888914388
O          -2.33321114511897    0.35679542200658   -1.86276563835683
H          -1.86428074342496    1.20486812093415   -1.82899126070328
H          -1.60065304128935   -0.27908614791768   -1.88779393496811
O          -1.09380646855699   -0.40147219088162    2.02754095666044
H          -0.57742676299390    0.42883496767655    1.89486503673153
H          -1.96114484265361   -0.24645843185306    1.57674944400586
H          -0.38202880790146   -1.32702528104184    1.28020593070904
N           2.55288423918074   -1.02907098746537    1.33751007744463
H           2.50728471332661   -0.54610091110985    2.22603141754376
H           2.58155397706053   -0.32186956065835    0.59861797867381
H           3.40547562340253   -1.57186305063819    1.30694380949086
