    26
        -50.46215556  Gyration_radius:  2.39731045852 Dipole_moment: 4.888
 S           1.24197292043270    0.54519263917623   -0.89266054052756
O           0.69883878981156    1.21022137609836    0.31878273124832
O           0.78290770966999    1.20755348813425   -2.08649175403157
O           0.87440247416053   -0.87016560950300   -0.85556348150701
O           2.77745481791576    0.65093550095652   -0.80240065730433
H           2.99365417009376    0.03580112080255   -0.03607123676540
H          -0.63979495254691   -1.20137952405289   -1.14181192336430
O          -1.61445820289848   -1.35597128067816   -1.28846334205726
H          -1.68610271363489   -2.21412383077623   -1.70840004338705
O           0.10285832684813   -0.30805653363406    2.36449541695804
H           0.42244368050777    0.22206715987707    1.59519137730198
H           0.04977106877829    0.30354588847231    3.10160481671114
O          -1.83015858870478    1.19341938686500   -2.24510082624942
H          -1.96766953999642    0.23535986654163   -2.13007435494313
H          -0.85934520487910    1.29251916436218   -2.39523356048108
O          -1.72324213229868    1.84981410285510    0.16042687834491
H          -1.89168619124335    1.69092065605372   -0.87694351050337
H          -0.69957074206651    1.73701704253500    0.24455958359015
O          -2.30379486314907   -0.38606355932240    1.15430696223476
H          -2.09441133000688    0.98453784956713    0.63432472001948
H          -2.19424695950711   -0.91176758511241    0.33906512248405
H          -1.49232103700464   -0.53945501648764    1.68790327378360
N           2.86319393786291   -1.12982972499566    1.08709262279032
H           3.58265364357796   -1.83353125274322    1.19040060685354
H           2.08139361905369   -1.52906831440054    0.57314525804231
H           2.52525727922947   -0.87949303059797    2.00791585075570
