    26
        -50.45402686  Gyration_radius:  2.47058682697 Dipole_moment: 3.621
 S          -0.71272107123796   -1.13894723417138   -0.35507704735736
O          -1.29709899125919    0.09383046127103   -0.81591828515470
O          -1.24850762441364   -1.61740865278366    0.88665033851975
O           0.81509123385539   -0.96355399067175   -0.23766031514570
O          -0.83278905790318   -2.23021155675099   -1.40965636103773
H          -0.20095023659947   -1.96122770845788   -2.17589499089034
H           1.09336981390657   -0.00255079355842    0.02158651179931
O           1.53612258604905    1.35188984423192    0.43407838947986
H           2.39542146651976    1.25651588316875    0.85218415473958
O           0.28792823659716   -1.04358460201984    3.01111907402641
H          -0.03767912282982   -1.54004532049589    3.76395111942625
H          -0.23447482883216   -1.33908568194557    2.24088292782138
O           0.87392407582577   -1.43597464811654   -3.09251728120838
H           1.69423763766375   -1.69555197997917   -2.66594118625179
H           0.81878734018160   -0.43110232308889   -3.00250658570819
O          -2.44896264907703    0.92346361997647    1.47585434337978
H          -2.17466864854382    0.81283062032855    0.55059459210832
H          -2.58059397279814    0.02612367883745    1.79511960556779
O          -0.02568714818644    1.59919278419330    2.44658009928555
H           0.15594849594700    0.72507384407550    2.84037022418068
H           0.89522127963537    1.56237913722249    1.19516947867355
H          -0.96033369601373    1.55349780529880    2.15326644650329
N           0.63651100249347    1.13632531130721   -2.59075286920548
H           1.32685208864349    1.54089459828948   -1.96891750747077
H          -0.20875200583465    1.00441349499792   -2.03680909333109
H           0.43380379620463    1.81281337885253   -3.31575576273175
