    26
        -50.46185104  Gyration_radius:  2.40111765563 Dipole_moment: 4.309
 S           0.30991632327842    1.69455094853312   -0.58922969077575
O           1.63396215173051    1.10694387424876   -0.43327436411925
O          -0.32862820638812    1.97643011994008    0.67252199414839
O          -0.51563194325482    0.87863043970903   -1.47606196417024
O           0.50845621581498    3.07485866833611   -1.32653800223039
H           0.88545610884387    2.79719758065839   -2.15394412196506
H          -0.33865024691856   -0.75122248854832   -1.15642787764032
O          -0.23131862983136   -1.66908155774474   -0.82069390497800
H           0.74794250136020   -1.84152182078551   -0.87641765793146
O           1.35316805624187    0.25580040067756    2.02736394832987
H           1.56842855303154    0.56310025139049    1.11569007281074
H           0.94896265113861    1.02265808292749    2.44454536846067
O          -3.01791602136214    0.01162659851465   -1.02911178718828
H          -2.94484105919366   -0.90159652634492   -1.31584359961407
H          -2.19194129586971    0.44725630981961   -1.31523129066996
O          -2.31871470339602    0.45371031042258    1.49532458980139
H          -2.80222803551865    0.29122288487744    0.65207414320165
H          -1.68776165731376    1.17594054668220    1.28027794658067
O          -0.60640451077671   -1.34590843356365    1.62484237820212
H          -1.41417035440477   -0.63789440452370    1.65118784636031
H          -0.48110191250192   -1.58135773349920    0.59362840114709
H           0.22030436022396   -0.80068359671268    1.87479107841783
N           2.42507237658093   -1.66136898789709   -0.76635337383207
H           2.85103606930148   -1.97609110761811    0.09641548499012
H           2.39964429091469   -0.64318960179708   -0.73920726403931
H           3.02695888826346   -1.94001075771159   -1.53032835330680
