    26
        -50.46185110  Gyration_radius:  2.40104677677 Dipole_moment: 4.306
 S           0.80102573731312    1.05920836374567    1.24622237105411
O           1.81766414941964    0.85445672724278    0.22289555423326
O           0.55582612660848   -0.12286834417612    2.03481877853363
O          -0.41578113955357    1.61636077268556    0.66074223683186
O           1.35756384092598    2.16271254735763    2.22644009506920
H           1.44618581934134    2.90875223363975    1.64375285989013
H          -0.79825057841868    0.87366359997018   -0.78543170517350
O          -0.97875136618795    0.30678029541032   -1.56827405298241
H          -0.16071637199661    0.39000779872323   -2.13024377997090
O          -1.66937041309361   -1.49242436934714    1.67421584144286
H          -2.32467499105008   -0.76885891079505    1.53879226776880
H          -0.86694997474270   -1.03591094679296    2.01128240740173
O          -2.93325370254050    0.74617496817401    1.00459266061715
H          -3.25699180011330    0.77379629841410    0.10128440821740
H          -2.07253786520650    1.20760360171188    0.99286921220206
O           1.69926907454862   -1.76004894599183    0.12780064599975
H           1.84126062242867   -0.78464998473724    0.11092369466791
H           1.69199104694012   -1.98023546760931    1.06425207087998
O          -0.75249705070988   -1.97593995562570   -0.58695849224706
H          -0.91478478905320   -1.04318573181600   -1.07531124524227
H           0.24799507821988   -1.99789784539833   -0.38331436663085
H          -1.22106070581503   -1.87055403518832    0.37419777696935
N           1.45333630177007    0.46465308516234   -2.62599971671751
H           1.76022873816470    1.16345834348828   -3.29011127333044
H           1.88082608268284   -0.41673552779611   -2.88159018944548
H           1.81244811011676    0.72168141955207   -1.70784807003723
