    26
        -50.46336801  Gyration_radius:  2.4859373449 Dipole_moment: 5.653
 S           0.44523806134669    1.01368751348450    1.52460043342504
O           0.54505431976750   -0.16377793203510    2.34858984184389
O          -0.89243936062582    1.54950994362095    1.41949038594516
O           0.99359200987938    0.76591550605890    0.16241035657718
O           1.37536364651412    2.10465060702002    2.16119508873167
H           1.37216932061503    2.83045395776471    1.51429191940534
H          -0.31691580021039    0.80376457735210   -0.84973884719023
O          -1.09489175372521    0.82893375602082   -1.45314718466662
H          -1.46582867445711    1.70592828607420   -1.33644770693276
O          -0.71285403375330   -1.57847464097678   -2.62838944479131
H          -0.95521038500060   -0.67391133934793   -2.35485975354497
H           0.10381175207626   -1.49616785492930   -3.12378933287122
O           1.49033162123628    3.32109897583249   -0.23408178861883
H           2.39100850095820    3.46978930981153   -0.52932129109574
H           1.32634509126661    2.35901803524058   -0.30651039176089
O           1.75408256044035   -1.72559221283027    0.69835994131902
H           1.80182246032707   -0.90406799644109    0.18089684977821
H           1.46352531253978   -1.36700575863949    1.56670185503057
O          -2.26384899674731   -0.55809214590858    0.67899844413451
H          -1.81921330400684    0.16325150250667    1.17866086414662
H          -2.37863666265592   -0.17352131976580   -0.20190174310732
H          -1.29074398844871   -1.76487831318203    0.36277288549342
N          -0.63611550334147   -2.48317447272317   -0.08134452749627
H           0.36104725713441   -2.27944354424926    0.25584043272073
H          -0.67527064986847   -2.32207760961253   -1.11258124006201
H          -0.92142279130322   -3.42581683061778    0.15930393368821
