    26
        -50.47319288  Gyration_radius:  2.45114251731 Dipole_moment: 1.787
 S          -0.14053354006756   -0.78020577828400   -1.34381261974435
O          -1.56522199774694   -0.74377819640349   -1.12927303151621
O           0.53743256230287   -1.67423549606974   -0.41050602518816
O           0.44298373921966    0.57299531985968   -1.28571489578992
O           0.16086619831891   -1.34053433180199   -2.76716653636393
H          -0.16363772615906   -0.63837706917572   -3.36172657573243
H          -0.13406374088738    1.38250719297987    0.02095567989305
O          -0.46220142915714    1.86795393486582    0.81591931730869
H          -0.59778954314739    2.77507501724851    0.53767127892635
O          -0.35659372849834    1.06901794028761   -3.74235086610501
H           0.34563695885240    1.46267521839461   -4.26528137318855
H          -0.09081187150604    1.14758673178512   -2.80502416667959
O           1.22906196551135    0.52205861725882    2.55966671595301
H           0.67311292440032    1.20141568261784    2.14487228910748
H           1.90950453502947    0.30678354663973    1.88089140467638
O           2.59048794080454   -0.13631565537189    0.34896515661896
H           2.37023320763138    0.56668698115703   -0.27042185985958
H           2.00565940747307   -0.86821656106662    0.07688859720143
O          -2.43838370310948   -0.02666564274897    1.25630874613322
H          -1.97910519699567    0.82854488292751    1.27117538213115
H          -2.34152773947267   -0.32861247031940    0.32664316525806
H          -1.33719389893627   -0.97270481487368    1.88453971931867
N          -0.40327308586179   -1.46341409766689    2.05532008058094
H          -0.04551450207839   -1.72838854620506    1.10436025766769
H          -0.48854567859313   -2.27033755074572    2.66220865966769
H           0.27941795270334   -0.73151487525649    2.43489149983669
