    26
        -50.46576494  Gyration_radius:  2.49388849878 Dipole_moment: 1.854
 S           1.25260836192447   -0.52900155756757    0.47783286967510
O           1.36702816300168   -0.26496809006267   -0.93709300572188
O           0.12503704490764   -1.41989053147260    0.75254840875005
O           1.14535406007692    0.69565287549716    1.27729923817758
O           2.55670498505634   -1.26306826089693    0.92071458494066
H           2.47388031700935   -1.27872329345708    1.89324277397098
H          -0.15367382600373    1.61808458578201    0.94642082229303
O          -0.96733963112758    2.13099882590881    0.71481264540171
H          -0.97157976670248    2.90092468146720    1.28572694893460
O          -0.25150327896056   -0.24066710900578   -3.25638729192053
H          -0.28548549837395    0.69743277250362   -2.95841456001067
H           0.63975358017461   -0.51237181687588   -3.00523416223579
O           0.13138562245103    1.97452872270094   -1.84569016003569
H          -0.43458521272134    2.22643728706774   -1.10256701691373
H           0.77238468681078    1.34670593731094   -1.46738202421813
O           1.97619056307428   -0.57096962959669    3.40902079630735
H           1.53383623801897    0.04728044953761    2.79144652183102
H           2.64612044574068   -0.06340338270940    3.87263589410262
O          -2.44917114446035   -0.15614514436605    0.73901041611649
H          -1.73373101536477   -0.64306484201424    1.17263207449491
H          -2.13842983607273    0.76601946231042    0.71539776052663
H          -2.14412144186181   -0.91773366536470   -0.77188872428935
N          -1.46505919812904   -1.51027427116057   -1.30726744413279
H          -0.69454525557901   -1.64255487527888   -0.58958195767657
H          -1.05292519633862   -0.99430045029285   -2.15218331212607
H          -1.87813378655249   -2.39692867994513   -1.57505208627408
