    26
        -50.46357877  Gyration_radius:  2.38518244379 Dipole_moment: 4.786
 S           1.46326157800890    0.71402574193499    0.30925038516373
O           1.94958655739664    0.36394718162771    1.61622386186713
O           0.06920797211358    1.15995175842847    0.31717235262964
O           1.49896618312492   -0.59733573981026   -0.58863124715833
O           2.27323685190639    1.66311375094641   -0.44729300095941
H           1.26669152442661    2.09227570891944   -1.40872650080035
H           1.04046065094007   -1.33675515955759   -0.10647522030132
O           0.23172646446246   -2.53366043076910    0.61594250257212
H           0.76700868942352   -3.32315694036882    0.70917049205432
O          -1.87130627663436    0.29144208278831    1.77665154854316
H          -2.33331629614135    1.03804582590435    2.15883261652704
H          -1.11958129928014    0.66538017449425    1.24736669817006
O          -0.38292080242553   -0.12889134167600   -2.50210890407562
H           0.41723451408052   -0.49964596772658   -2.09648569383200
H          -1.10795329514983   -0.44305178349367   -1.90880152005022
O          -1.95132886037937   -1.20473668474444   -0.62311212588572
H          -1.33326066725816   -1.87778588395551   -0.30783558753840
H          -2.14404771168797   -0.66477026073426    0.15755574638204
O           0.18079279037934   -1.21923676950539    2.82122267107423
H           0.89811048925910   -0.60529153330341    2.55319632907036
H          -0.64767711915833   -0.72321760940084    2.70641184007561
H           0.16671998683961   -2.12381517620852    1.53757207596125
N           0.38048777513822    2.30974613715675   -2.01991581601475
H          -0.02048811690005    1.33940528990395   -2.29208898427347
H           0.59326113275817    2.88467780997587   -2.82907728375212
H          -0.28487270525969    2.75933981917277   -1.39601723544446
