    26
        -50.46788077  Gyration_radius:  2.39868550779 Dipole_moment: 5.650
 S           0.84011933835219   -1.46508796618797    0.63899837693519
O           0.77097348303266   -0.06524257100253    1.04361325397355
O           2.15538039825572   -2.01987006782138    0.81162388542993
O           0.36201542327376   -1.59163980690414   -0.75800016062561
O          -0.16877588042833   -2.26086625869229    1.52326400864799
H          -1.02524989496418   -1.77196735116609    1.48153825429089
H           0.99551274260975   -0.37605921637833   -1.40073137720736
O          -2.41922382846768   -0.83130067154420    1.46575602951767
H          -2.90489784650631   -1.00633738301521    2.27350445821002
O           3.34269440206091    0.27096213243717    0.21222388370592
H           3.06659199198726    0.76623259554163    0.98900462896914
H           3.08252788461875   -0.65633381286321    0.42226536715062
O          -1.97113595755640   -0.46162391767130   -1.26331868452979
H          -2.46759627164002   -0.63293406225752   -0.45293777135931
H          -1.15360596518160   -0.99768611277682   -1.16425235325703
O          -0.91614972468587    1.92757591031779   -1.28122155262815
H          -1.36408441284911    2.46266839837199   -1.93759856526346
H          -1.37294587434045    1.03648296838970   -1.28950844568189
O          -1.25815933976438    1.50279269771645    1.52289975897450
H          -1.29843986295481    1.94313657276159    0.66365320515016
H          -2.06171677886667    0.10110766324024    1.54552992699103
H          -0.41019058118784    1.00706468312724    1.48738394246728
N           1.44514629716400    0.57720808460680   -1.61531243675270
H           0.70475857035791    1.28542451691422   -1.43469235318452
H           1.78477474146533    0.62691002140442   -2.57031611083072
H           2.24167691625536    0.62938294346345   -0.91336918910299
