    26
        -50.46302235  Gyration_radius:  2.50666763105 Dipole_moment: 2.712
 S          -0.83207207316571    1.47095225297045    1.16123752194295
O          -1.71330851205772    0.69667801280469    0.28893320230511
O           0.21854979479711    2.13471269816301    0.41225573444632
O          -0.37187301464689    0.71237678184282    2.30127764342069
O          -1.73271129226841    2.64305021008863    1.74662485467691
H          -2.21649830581063    2.20770072047718    2.44100169256742
H           0.75444209047754   -0.43597692757825    2.14022016820278
O           1.48002979296730   -1.09702548761121    2.01527139026730
H           1.91830324862800   -1.16825690242552    2.86487235315247
O          -1.15402322555173   -1.69761777121652   -0.98518106781553
H          -1.47300607759524   -0.96465388434191   -0.43629671187037
H          -0.73465956002061   -2.33082495094372   -0.37077498804563
O           0.61348137364293   -0.44252229454574   -2.46904961123706
H          -0.02418405037477   -1.06794352506636   -2.03432656840864
H          -0.16909615945866    0.77432742677184   -2.32437241171067
O           0.34607113501029   -3.20959017612223    0.71452789879958
H           1.06836168154403   -3.61526933822722    0.23196576679544
H           0.73717614148441   -2.49120291299430    1.24682627422718
O           2.04828943820419    0.26549933573139   -0.33465825363256
H           1.52867765619888    1.03335838337703   -0.04110483439188
H           2.05069364514370   -0.33709594157735    0.42367950957130
H           1.30834680949054   -0.28001615986762   -1.79017771690788
N          -0.78183912984597    1.62725697218164   -1.94718674092866
H          -1.44586430552249    1.20989424787550   -1.25046369547196
H          -1.24056577872866    2.16154520444107   -2.67580935338621
H          -0.18272130244021    2.20064402581870   -1.32929204655856
