    26
        -50.45599939  Gyration_radius:  2.47912805438 Dipole_moment: 2.516
 S           0.82311553898748   -1.08835844552680    0.57482681448658
O           1.34347350382503   -0.86607748996436   -0.75542165115148
O           0.12995813605199   -2.33463080612823    0.72753086810486
O          -0.10926673163927    0.07697832329516    0.95020581383832
O           1.93219182568296   -0.97901582142778    1.60379759553300
H           2.31079568797691   -0.01042302796265    1.56180307314780
H          -0.96546436683755    0.05781474386361    0.36378049337531
O          -2.16041814998881   -0.15361219925137   -0.48926540014027
H          -2.61017760120628   -0.82779875883258    0.05922172437212
O          -2.53503712233540   -2.28967288492310    1.07957058993948
H          -2.73429058874705   -2.39600798760669    2.01077355758349
H          -1.57477198664818   -2.44292998483133    0.98559540822281
O           1.82778130606188    1.78349071011847   -0.95323450984759
H           0.92226872989924    2.17165694691896   -0.88487236051830
H           1.69183145474752    0.83649700289825   -1.12292286873324
O           2.82991017619362    1.35119290843063    1.36904849517997
H           3.78137558475791    1.31100427313037    1.24639895179172
H           2.44289212611509    1.63623542109880    0.47591639567445
O          -0.79836862578682   -1.78442425473656   -2.06518730899812
H           0.08656977068830   -1.48370126684027   -1.79092768111875
H          -0.90654528138963   -2.65822254032373   -1.68106575309088
H          -1.78285045943083   -0.67040392386526   -1.24242730818415
N          -0.73238965790591    2.64199922678856   -0.59353927061918
H          -1.38244353780128    1.94457633263456   -0.93714682459252
H          -1.04801131006276    3.55008389061052   -0.91026517928733
H          -0.78212843121263    2.62374962244950    0.41780633502066
