    26
        -50.45659072  Gyration_radius:  2.4605132034 Dipole_moment: 4.783
 S           0.97503992515523    0.56021156608550   -0.59513716552369
O           0.60321577379835    1.72657539504904    0.19891442977267
O           1.24218876974352    0.85094103904129   -1.97306271701026
O          -0.04318559696571   -0.49984393976847   -0.43609874102993
O           2.26097078154374   -0.02370471144750    0.09263568796384
H           2.71642184278762   -0.56443470390537   -0.62143964662993
H           0.22705066132892   -0.90145778897091    1.11771115753467
O           0.29407336010228   -0.98055024561799    2.10132456510360
H           1.23218381529865   -0.91248058345569    2.29225277451526
O          -1.74812735562423    1.36806178717419   -1.44661877501467
H          -1.19178228758113    2.12387786661428   -1.64665697785512
H          -1.13593645721670    0.62837118163343   -1.31283004712480
O          -2.30092362634052   -1.62270315013139    0.64501260952331
H          -1.56892680878924   -1.38253977239957    0.05393085036969
H          -1.89029111566515   -1.99639945875874    1.42914811244904
O          -2.92769545640900    0.93634894559351    0.90453479013372
H          -2.92544164496908   -0.05098066651494    0.84061806213069
H          -2.66653607635263    1.24016273566816    0.00296704697037
O          -0.85199350236881    1.33896817434413    2.18106692341805
H          -0.22916877431935    1.63311401239839    1.40121580286443
H          -1.84359756271973    1.20543220344549    1.67344183385170
H          -0.50225245981974    0.41747296007733    2.38396544835815
N           3.07813864507317   -1.23983686671243   -2.05867157391008
H           2.72792703100541   -2.16202818019327   -2.28287810664486
H           4.00346648752585   -1.14455474910343   -2.45641073664139
H           2.46518162175688   -0.54802303015476   -2.48893559758182
