    26
        -50.45599940  Gyration_radius:  2.47927754134 Dipole_moment: 2.520
 S           0.54781056795835    1.29362315463361    0.46042072372786
O          -0.59552495379071    1.03213600294027    1.30535961011904
O           0.35569366442678    2.37698276690923   -0.45958840907461
O           0.90582666751136    0.01103266147879   -0.31105382355398
O           1.78561000052624    1.53791316281105    1.30245540409822
H           1.97649219621078    0.67228207368408    1.84760516476293
H           0.16264113672210   -0.21614424143540   -0.99935182879481
O          -0.93703724687772   -0.35833938759162   -1.98397137249457
H          -0.60562255894359    0.26667195942534   -2.66018183552378
O           2.11328638076018   -0.56328640744053    2.63262211535771
H           2.18308788764330   -0.33907099768580    3.56363619159516
H           1.21693199418409   -1.02433128110691    2.52067214122503
O           0.16236789412075    1.82046772151778   -3.08287718944829
H           0.24251395493665    2.15786648571828   -2.16957539830762
H           1.00441032188871    1.99055428800666   -3.50726948149861
O          -0.26592403782492   -1.46129694749607    2.28945462065459
H          -0.32219169801816   -2.01974056767737    1.47695115209607
H          -0.60811743252124   -0.58996325995747    2.02906771028430
O          -2.44070599059914    1.32768842720561   -0.60708436079157
H          -1.67012705083835    0.13471168507459   -1.54110022984579
H          -1.94964836243013    1.25100953771434    0.23054713408808
H          -2.22738424525903    2.19756302268289   -0.95449543216123
N          -0.30004150060760   -2.78607784626185   -0.09078949975934
H          -0.51528762524842   -3.77269138257731   -0.15983311011974
H           0.66222338746607   -2.65041527517125   -0.37584306864656
H          -0.88128332127033   -2.28914535534388   -0.75577693802654
