    26
        -50.45659062  Gyration_radius:  2.46030309844 Dipole_moment: 4.776
 S           1.12412654843375    0.12875372268325    0.58336791023956
O           0.32207603481947    0.21462773617604    1.79927227241051
O           2.16176246818815    1.11382988733412    0.49542624129028
O           0.24092432538989    0.14219702571285   -0.60220230021401
O           1.74769112025840   -1.31303660495703    0.59249636067722
H           2.55251556536557   -1.25313381342715   -0.00609677169669
H          -0.47392048708503   -1.30879218074860   -0.42174983429275
O          -1.01319898947224   -2.10004329034490   -0.17411300167455
H          -0.38306497144341   -2.72552005618494    0.19041721928668
O          -0.54755738575594    2.56676082910330    0.35510443106727
H           0.00182807011016    2.71600255570810    1.12756209438763
H          -0.12455930431406    1.83651002414466   -0.12200001328165
O          -2.18597540006118    0.13101336039996   -1.88172695384182
H          -2.32441433022734   -0.81975379531229   -1.87645345371102
H          -1.25112553526632    0.26183932207273   -1.65418302616280
O          -2.89877318943846    1.31027661244086    0.37896294475977
H          -2.15264447046060    1.95199238025257    0.44755211928184
H          -2.83638743775907    0.95984067799293   -0.54417913185317
O          -2.02642575630487   -0.60136386200003    1.67717644626681
H          -1.85008803095012   -1.31138267132202    0.98621830074791
H          -1.06558754758325   -0.25078738413821    1.86808861698598
H          -2.50613835365619    0.26012547969444    1.14243334520095
N           3.72079599444991   -0.66280450846243   -0.97567034023285
H           4.69709839091859   -0.83702987644594   -0.77559745112868
H           3.47749232322298    0.26531715157308   -0.63091340678568
H           3.59355034868011   -0.67543875194619   -1.97919263767914
