    26
        -50.45693076  Gyration_radius:  2.51216912965 Dipole_moment: 5.076
 S           1.59870759639540    0.39434958345740    1.54009953335718
O           1.97103299893914   -0.38195142678373    0.35505872303068
O           0.82530626984814   -0.39653294025583    2.47639653169379
O           0.98478074338934    1.65334537165067    1.18208612629236
O           2.95546293332659    0.74915112995520    2.28169275405621
H           3.32805636261510    1.46971959608989    1.78047027256467
H          -0.58493071061604    1.24291847511716    1.13693334889930
O          -1.52525691687485    0.94431202889105    1.10799392038627
H          -1.82319924314162    0.95633952131323    2.01902044330221
O           1.03611035303186    0.92489657125091   -1.82954527852935
H           1.43524022808929    0.53728633942854   -1.03169032524650
H           0.49916716687776    1.68118432413900   -1.53790098356124
O          -1.03402837625150   -0.47831243607237   -2.61808037121039
H          -0.20314507282196    0.01651829013690   -2.37527119484948
H          -0.86390246132617   -0.89312994345883   -3.46335064703409
O          -1.38456554669552    2.25491052084257   -1.42584090434073
H          -1.59073332541193    2.00172525757903   -0.51789237408267
H          -1.69809451822197    1.53495753468015   -1.98290462012043
O          -1.87141165638626   -1.37606297939553   -0.24993810913733
H          -1.66264502313728   -1.12301293937248   -1.17522034135719
H          -0.64879118581469   -2.02822130600074    0.33392968503921
H          -1.88960862746922   -0.53008856080409    0.24356237426301
N           0.29514829649133   -2.29064088096528    0.81108761466347
H           0.33940939914906   -1.77616229645147    1.72686304124179
H           1.07047973175643   -1.79794920313843    0.31094830402532
H           0.44141059425975   -3.28954963186586    0.90149246669747
