    26
        -50.45693082  Gyration_radius:  2.51245353563 Dipole_moment: 5.074
 S          -0.56483545978835    1.86970140943697    1.12772315536744
O          -0.49178865085296    1.94954565533008   -0.33305349400710
O           0.75364367297696    1.84883737244263    1.72890536721792
O          -1.42886172511026    0.79462544203381    1.56109506016586
O          -1.24596366158297    3.21837377522808    1.61155245389567
H          -2.17608277396760    3.09968859923231    1.43773290298462
H          -0.37421414109004   -0.43190320972477    1.69043866300390
O           0.30040615979541   -1.15064325615647    1.74103510903978
H           0.72885210838204   -1.03698544062438    2.59091759183482
O          -1.67199744130651   -2.49151891517736    0.17081054825079
H          -1.11739725796182   -2.75741390729007   -0.56991478662148
H          -1.06967477515992   -2.21287520264173    0.87124358808603
O          -1.84398673515903   -0.16487636710474   -1.36025863703065
H          -1.45077730831751    0.62760041871769   -0.95592156770642
H          -2.11788680453314   -0.74745303556153   -0.63155520427204
O           0.01714218078045   -1.80293272330457   -2.21463487881357
H          -0.69781723026071   -1.15370607129833   -1.96680484857022
H           0.00090064640268   -1.87116622123600   -3.16888022349151
O           1.92185346721210   -1.25673424798656   -0.42882504809598
H           2.07736075371165    0.23586997998701   -0.52300553749623
H           1.39764276713835   -1.34174811703754    0.39427082669182
H           1.31308500953270   -1.53982743495646   -1.14508353199238
N           2.00813102486453    1.32159495248490   -0.45961996520187
H           1.07700950528055    1.61904986062758   -0.83171154557830
H           2.78911825454999    1.80483704900076   -0.88848458498833
H           1.86613843445111    1.57005964556275    0.55202859731652
