    26
        -50.46977837  Gyration_radius:  2.43906778353 Dipole_moment: 5.760
 S           1.58963826811914   -0.96401185434908    0.21714390649930
O           1.22380591027164   -0.57494628067324   -1.14239282070808
O           1.23011456467068   -2.31442638143000    0.54779221861735
O           1.11647573974262    0.03227493650994    1.17392583857797
O           3.17064569993920   -0.89482214205788    0.29108952665813
H           3.38571653194582   -1.80896047006978    0.14488282838296
H          -0.48124870596081   -0.06676932105817    1.55802208673858
O          -1.44903637996943   -0.10416012547970    1.73376657842682
H          -1.55784558515628   -0.05261938030040    2.68430517124990
O           1.52257047594791    2.62180333464250    0.91865073723034
H           1.52049076571585    1.65377094032335    1.09277097601330
H           1.24114824454534    3.04305214686341    1.73220996473893
O          -1.46809130980667   -2.60943147112364    0.43079246886636
H          -0.50168756292488   -2.69866936785549    0.50111121829204
H          -1.69616382809166   -1.85292326998609    0.98950830089095
O          -1.36945175389369   -1.23432527107559   -1.86624575203756
H          -1.57237653271190   -1.89507267745045   -1.16924240565400
H          -0.40927449416045   -1.11381095720988   -1.80883426749556
O          -2.19053284056336    0.97627522318484   -0.70727253772542
H          -2.14539728667389    0.68423112370886    0.21698416266469
H          -0.85011826351594    1.60744515659481   -1.04176342182885
H          -2.06787637529637    0.14261825189337   -1.23679433883648
N           0.18588519353874    1.83557398525583   -1.27632418029945
H           0.63097273312048    2.37921138952602   -0.50922072532828
H           0.26707978920828    2.31021060127367   -2.16856952875094
H           0.67455700196198    0.89848187033864   -1.30629600518029
