    26
        -50.44079374  Gyration_radius:  2.58754347102 Dipole_moment: 5.372
 S          -0.34283724845916   -1.74742942874148   -0.53203215012644
O           0.70702102054326   -2.26485643058028    0.27480600717038
O          -0.03803859676867   -0.57969319712917   -1.30785217636921
O          -1.59714822044926   -1.42775935816355    0.34269866720329
O          -0.89367450801031   -2.86201584094404   -1.44247936983527
H          -1.67406926770713   -2.45228768661672   -1.88536454097567
H          -1.34515619962093   -0.69482690088844    1.01165571371007
O          -0.95143197605663    0.51795835927942    1.81909595713571
H          -1.66960537974371    0.85760167108349    2.35731574603978
O          -3.04905346886585   -1.51464348925267   -2.01477840315585
H          -3.88186008296848   -1.98909787882127   -1.94609656450342
H          -2.89767924687402   -1.07017897921927   -1.17106321070215
O           1.72360655708825   -0.50256863236816    2.16659876787425
H           0.87496950633968   -0.06389270516987    2.29411641561892
H           1.52645004680646   -1.29341533925667    1.64529415502840
O           1.54346731067417    3.13648566629580   -0.12164148098073
H           2.02155854641206    2.27567731802268   -0.29420544287172
H           1.79152116423457    3.39994150512666    0.76579465273182
O          -0.77866011187221    1.87685913712666   -0.30934277610289
H          -0.53123666548588    1.14102923501613   -0.89231526559009
H          -0.85899951908604    1.15641530114350    1.01809372766390
H           0.01832564662616    2.46534285122192   -0.28646872625233
N           2.53859559913060    0.68694836491702   -0.38075222145027
H           1.81547589877707    0.19181251927811   -0.89445032443852
H           2.51801877185148    0.32026283373763    0.57099458232391
H           3.43044045347695    0.43633112489493   -0.78762173915224
