    26
        -50.46633699  Gyration_radius:  2.38590655716 Dipole_moment: 5.209
 S           1.51370927246965    0.61353600996238   -0.14770561349861
O           1.96254983599951    1.08000429142185    1.13528979064267
O           0.36903511671509    1.37846847225763   -0.65284652344429
O           1.00166518307284   -0.87847576582955    0.02212626053194
O           2.54085650000144    0.47151411865727   -1.17164481387092
H           1.93808231325386   -0.52298143234906   -2.05522964931775
H           0.49569747572255   -0.99245418478751    0.86796975577240
O          -0.34842065307791   -1.25799984098906    2.22520365280238
H           0.13103650045468   -1.81208120311612    2.84272706245956
O          -1.73395569487255    1.84737592103237    0.80378333391119
H          -0.92093476105594    1.73088722187157    0.25123132428976
H          -2.16524736144523    2.63991308878594    0.48201525467388
O          -2.23893142150294   -0.82640324753491    0.13509073177011
H          -2.29701493979317    0.10542562995690    0.40373350670477
H          -1.73067241213335   -1.25240635742956    0.83537929056885
O          -0.96827036159912   -0.26919427518921   -2.16943955410826
H          -0.54399245574672    0.49809394748253   -1.72112165644492
H          -1.51229114376395   -0.66740500550646   -1.45310712560155
O          -0.04134555636725    1.21119275749524    2.88619197676802
H           0.78071464222144    1.30266028932699    2.35901541410853
H          -0.74065111150015    1.62551598264905    2.35518273002663
H          -0.30328032003922   -0.32181557375606    2.59719275156613
N           1.36104659779761   -1.27191959409623   -2.60781393751832
H           1.63076847079035   -1.30371142844009   -3.58589478676954
H           0.31808257299562   -0.95719094947291   -2.48097618465535
H           1.50176370139701   -2.17054883241150   -2.15635298136473
