    26
        -50.47322680  Gyration_radius:  2.41276763637 Dipole_moment: 1.510
 S           0.89765747001507   -1.44147981904527    0.68726393857545
O           1.62201932952774   -0.24882136472888    1.10992382924008
O           0.82702678712021   -1.58733515017430   -0.74847362333155
O          -0.40584107165262   -1.52742268130451    1.33015751581175
O           1.73978314253711   -2.66759971370007    1.21997996181690
H           1.81026667916059   -2.44500881049402    2.14130527527017
H          -1.81580995521028   -1.37425126827021    0.42662986545198
O          -2.62945550785887   -1.15268539984717   -0.07887889583630
H          -3.07552307853051   -1.98430524508663   -0.24453142592907
O           2.58718108244190    0.39498689012955   -1.25878472437862
H           2.25831206277273   -0.43725893611385   -1.62298069131863
H           2.45999449230914    0.26775076408501   -0.29654212517958
O          -1.04450322895832   -0.19321302147607   -2.04755531572716
H          -0.35096041195600   -0.80814368031910   -1.73387167807231
H          -1.80527647400810   -0.39277033233214   -1.46998152580559
O           0.25160161765575    2.07217121483034    1.17014092150802
H           0.25860190565561    2.10862181047976   -0.38888569011410
H           0.86084618983708    1.32164406629634    1.30665556377935
O          -1.83320427242938    0.66787531242151    2.08261840901807
H          -1.28678495509024   -0.13658239382433    2.03503833755696
H          -0.59324231900226    1.76667412451844    1.56453817765491
H          -2.56632688518055    0.50094744465883    1.48231292665055
N           0.40903383631255    1.91131029795561   -1.43119710290011
H           0.35664533464521    2.75494181304851   -1.98984477406008
H          -0.29162281434170    1.17754629875712   -1.74678165718018
H           1.35958106422651    1.45240777953194   -1.49825549250687
