    26
        -50.46044996  Gyration_radius:  2.45556451767 Dipole_moment: 6.767
 S           1.23310100803979    0.87121559852457   -0.40169285605433
O           1.35395881372174    1.92283233003405    0.56622241337653
O          -0.07414643701369    0.84032789200591   -1.05827810050110
O           1.37673680606341   -0.52286217309411    0.33215658159518
O           2.31846408769942    0.82299675633448   -1.38439084695999
H           2.20640763623690   -0.49136535338014   -1.87159492859548
H           0.49450769126051   -0.85935440921478    0.64873215286735
O          -0.87878932768310   -1.62383452159261    1.00815908803794
H          -0.73565805950668   -2.16740140663130    1.78468083214953
O           0.10748970734650    1.48288636357549    2.85214990547335
H           0.02608554984721    2.34828866138874    3.25672239642414
H           0.61158417479859    1.63109451779366    2.02137969349159
O          -0.56071305027993   -1.60481509326742   -1.75539567572538
H          -0.82632100412763   -1.94075401326197   -0.88632568916682
H          -0.53371424972741   -0.62553471093774   -1.61951624529354
O          -2.26746265704921    2.05736780611403   -0.17927854993820
H          -1.40355339286378    1.72680939042537   -0.50154813085238
H          -2.87594068369046    1.96892622470931   -0.91434139755256
O          -2.16575493215928    0.37978866285649    1.93116806964271
H          -1.40963677393088    0.78498181489067    2.40724933898305
H          -2.36168246428796    1.00854008290577    1.20730203763366
H          -1.46451330877751   -0.85512840270939    1.32935124713378
N           2.02185923039560   -1.56055103447645   -2.15050923975243
H           0.96037655089430   -1.70528847448003   -2.03150169140598
H           2.52716892761390   -2.14152600882519   -1.48825100309539
H           2.32014614712399   -1.74764049976954   -3.10264938190734
