    26
        -50.45993507  Gyration_radius:  2.49370654942 Dipole_moment: 5.697
 S           0.79155191894203    0.65231892294623    1.22695523094214
O           0.81156143572313    1.36032289432383   -0.04753342135031
O           2.05077514569085   -0.02888970025514    1.50539454808376
O          -0.30397351390849   -0.31899879990961    1.27572243067498
O           0.55962277268150    1.68624431720223    2.36081709714890
H          -0.12391451860574    2.30525525618100    1.99557045332043
H          -1.21797624585814   -0.51790505971950    0.03746137442529
O          -1.79170164944516   -0.75149243468010   -0.74919522564543
H          -2.49503086143399   -1.30299864823514   -0.39983169732948
O           1.97776921131496   -0.05135421094823   -1.93672416644445
H           2.01376531618416    0.52034275396814   -2.70522089503341
H           1.61589172188315    0.50078384644620   -1.20599895822946
O          -1.03051140404249    3.06464584097309    0.83447381296666
H          -0.35943120810837    2.71706029314901    0.22403497598569
H          -1.86769158010365    2.66181363138004    0.53471105540861
O          -2.96973977614159    1.73561921544683   -0.58279261289619
H          -2.99172166563733    2.16913271543080   -1.43749317402512
H          -2.54416218163842    0.86846889435019   -0.72248112506296
O           0.43925709822545   -2.15706944992352   -1.50163764419089
H           1.00209821552441   -2.37511384672432   -0.11720958403470
H          -0.41904849119766   -1.70339165819951   -1.38600743446668
H           1.05146598845990   -1.45462164891909   -1.82089399733673
N           1.37420208919232   -2.42575832283231    0.90791551524410
H           2.07392610764213   -3.15182418736876    1.02429733648191
H           0.58217946716442   -2.55908664099320    1.53226914816183
H           1.77083661747951   -1.44350399306367    1.15339696726074
