    26
        -50.46892618  Gyration_radius:  2.48070927808 Dipole_moment: 4.921
 S           0.86615549926076   -0.85712763826095   -1.81116599558383
O           2.07177830392368   -0.59338969019992   -1.03578528162541
O          -0.11826403901085    0.19688488751943   -1.63345093395895
O           0.34477581142381   -2.18854792020371   -1.59289575401564
O           1.28888849041686   -0.80178440275721   -3.33749923754046
H           1.60876354648479   -1.68836821381285   -3.46231360925193
H          -0.28623013000817   -2.29039244280470   -0.10770077964235
O          -0.70321387462731   -2.31691929153815    0.78795702155591
H          -0.72422850346570   -3.23985499047815    1.04540157851124
O          -1.82661058187571    1.46998127960127    1.43873330964292
H          -1.28746150715076    2.04278044366641    0.87699501885890
H          -2.25305442345538    0.83738954546572    0.81821667314268
O          -2.44647401170316   -0.42171786591626   -0.36004178685007
H          -1.72026053134060   -0.20652188647246   -0.96971770333771
H          -2.14888804239184   -1.21481961956496    0.10538352996850
O           0.05466841247842    2.51813363853821   -0.43681541736392
H          -0.04407883507739    1.67331903519867   -0.94023128631852
H          -0.06955564763315    3.22395859516129   -1.07229141517173
O          -0.07407132568088   -0.21998573272493    2.43463481155558
H           1.03715522627409    0.44054705323744    1.68900964833486
H          -0.81237931664161    0.41465519512074    2.23214341724796
H          -0.29819639601049   -1.03252453757737    1.94469703380201
N           1.74014405933214    0.95498337383069    1.02736180707411
H           1.26321563842016    1.78306122021941    0.63926233606784
H           1.94383846622607    0.30704923995513    0.20870297955975
H           2.59358372182609    1.20921070479706    1.51141004534195
