    26
        -50.46407699  Gyration_radius:  2.3640886555 Dipole_moment: 3.025
 S           0.80642799717011    0.39162259679216   -1.07569900482457
O           0.29164020093310    1.36473300633468   -0.11032979252530
O           0.01472670879201    0.37890219113710   -2.28962930527259
O           0.84152440875040   -0.94890803611893   -0.47023301454956
O           2.26036300578411    0.77809836659250   -1.42357581853575
H           2.68388112329645    0.81868330832676   -0.51385089175880
H          -0.43053823484730   -1.72831194026324   -1.09285627989890
O          -1.30689472425329   -1.97978237994126   -1.48054292329962
H          -1.28160146121058   -1.60137281107714   -2.36572868354937
O           0.86107946898117   -1.51168590676628    2.07631861137697
H           0.94412401620915   -1.34086135959203    1.10850138838061
H           0.74625180970151   -2.45879436554678    2.16907172465116
O          -2.14273351821021    1.58592096922837   -1.47349459533344
H          -1.73420085540733    2.20623432114079   -0.86022353666712
H          -1.37204731045561    1.18563398573934   -1.94897833015571
O          -1.17414533627086    0.22817440651217    1.71331951800681
H          -0.56860555533399   -0.45988724126627    2.05747368856032
H          -0.60650808924168    0.76301062891212    1.10290727721619
O          -2.75828480315328   -0.44113922866861   -0.09050287894469
H          -2.66252909871825    0.41835090924765   -0.66751264721526
H          -2.25630206229881   -1.16769316692346   -0.63605571338167
H          -2.15750360299249   -0.23146283059647    0.76560962337643
N           2.81608134324488    0.90103747373607    1.11907075155730
H           2.69181009079494    0.01616752586397    1.59671476335785
H           1.94494366236168    1.41565016251075    1.20204690280061
H           3.54904080637149    1.41767940465208    1.58817918661198
