    26
        -50.46407687  Gyration_radius:  2.36403303579 Dipole_moment: 3.022
 S          -0.32016769152872    0.80406465880381    1.10103593223607
O          -0.39385835700658   -0.65647669858930    1.17250024252061
O          -1.62856407201287    1.39193600404133    0.89321730338079
O           0.60233530279614    1.21006348714065    0.02904106608852
O           0.26305333493601    1.32482102191239    2.43251240032504
H           1.12051583085783    0.80592177286805    2.49642937872053
H          -0.34731680329885    1.68119452965405   -1.19141569355225
O          -1.08201445453073    1.80122145200864   -1.84514015664181
H          -1.78599338682533    2.20330141558020   -1.32545832055449
O           0.26246704176032   -1.76423570488009   -1.08759429074687
H           1.14392503239652   -1.37221986016378   -1.25498991516183
H           0.03541125300392   -1.46105164033475   -0.17254401029333
O          -2.96677825208378   -0.68476189181172    0.07235478142467
H          -2.62035312075496    0.16817716001607    0.43678942736966
H          -2.53143648442812   -1.35530762392294    0.60956192983188
O           2.49117356828496   -0.23710965486277   -1.03861269974634
H           1.84910367363061    0.37127775456961   -0.60229721292389
H           2.82977224297841    0.23725708838726   -1.79974116347740
O          -1.70555223223152   -0.63635973756930   -2.12018257780129
H          -0.83022444168827   -1.15864510224981   -1.80571355564520
H          -2.34256624251033   -0.72176951027340   -1.30302611663808
H          -1.45913570705562    0.37176887488062   -2.14277954379592
N           2.24282669261168   -0.35307704709408    2.19951014135374
H           1.53085823230086   -1.03413887047891    1.95489390838915
H           2.83732055420803   -0.74357222032628    2.91945233430026
H           2.80519847619916   -0.19227964727444    1.37219642102131
