    26
        -50.46633715  Gyration_radius:  2.38592282856 Dipole_moment: 5.210
 S           1.47303851407994   -0.63761216626675   -0.34120464753567
O           1.87375692080227   -1.50671119677116    0.73079410007365
O           1.36864344255976    0.76254210418699    0.08214470937173
O           0.01643171993106   -1.06451353471315   -0.80301657364457
O           2.23422462567809   -0.75485316563793   -1.57836262713625
H           1.27382143515226   -0.26132833673886   -2.56166273237483
H          -0.55646540663125   -1.29368534558221   -0.02608167483734
O          -1.55681678098569   -1.67810856578303    1.18944211592722
H          -1.75853856887403   -2.61479355622641    1.20413243971784
O           0.05571824230082    1.47389460807303    2.21155590189476
H           0.60840546719999    1.22142907966270    1.43008393347310
H           0.40869888373531    2.30478647923121    2.53194797690416
O          -0.43464091927370    1.83710956665028   -1.46598953711892
H          -1.21569235579755    1.58452685403881   -0.92373104895445
H           0.32197910695799    1.62433373161627   -0.87273314731863
O          -2.10352672858798    1.02852441809604    0.48194240439853
H          -1.51212974153999    1.31631112631455    1.19687716004043
H          -2.20825782982374    0.07932481518289    0.61734036068912
O           0.32586935282702   -1.18905010736413    2.87616449265110
H          -0.91255416343739   -1.51945771021624    1.94863018616325
H           1.03131997763076   -1.37065681413167    2.21938750042732
H           0.26466286637682   -0.22181524901667    2.93477779296363
N           0.44863559383896    0.12315179426881   -3.17039274363280
H           0.78262030391888    0.52495561113598   -4.04067956568151
H          -0.03199967501247    0.87349163592553   -2.53093981972361
H          -0.19720428312429   -0.64179606596578   -3.34042695673053
