    26
        -50.46407696  Gyration_radius:  2.36402569998 Dipole_moment: 3.023
 S           0.15110663754785   -0.68813896517076   -1.20987712784699
O          -0.17007705262661    0.73994280691338   -1.17546671375263
O          -1.03086113700749   -1.49221827431073   -1.44859822707246
O           0.80049291638557   -1.08897761404265    0.04816657576433
O           1.16542458883515   -0.92873732165464   -2.34887211943896
H           1.89528264252153   -0.28046179842593   -2.11270837617280
H          -0.34472767711938   -1.85965248257342    0.88917736545547
O          -1.19577636460574   -2.17793223784025    1.28417378236318
H          -1.64119821362439   -2.61048332252866    0.54805415057043
O           2.01976986027528    0.47520770767041    1.74186743153555
H           1.64620126811806   -0.16065463147880    1.08693602730485
H           2.22363490807201   -0.03976065919964    2.52416393732059
O          -2.90466495349436    0.22575172304410   -0.88744839319426
H          -2.31993543451805   -0.50771490045602   -1.20419306821973
H          -2.46817386488432    1.02066866918106   -1.21213455354629
O          -0.38109177145173    1.62074240350763    1.26311806963952
H          -0.28598948508538    1.41229236519886    0.29965222365359
H           0.47672159593080    1.35022054143980    1.64949202998671
O          -2.31302568169642    0.07529178110530    1.56743786499515
H          -1.89945222147156   -0.87684125008332    1.57632222221693
H          -1.49827570419210    0.76290807262839    1.57208127580425
H          -2.70340922630031    0.17161658803725    0.60841442400377
N           2.65619818286554    0.98616625039198   -1.40079822641187
H           2.98821197167256    0.80360769393494   -0.46112578977961
H           1.79073897698488    1.51059750732103   -1.32023620978763
H           3.34287524337004    1.55655933629223   -1.87759858477722
