    26
        -50.46407694  Gyration_radius:  2.36403188019 Dipole_moment: 3.025
 S           1.39047113411966    0.12260920545017    0.10522433698355
O           1.72804034209299    0.55773003699383    1.44582010730721
O           0.58411710249969    1.12333486155680   -0.59629713896581
O           0.67463878453219   -1.16229642975433    0.14632236209333
O           2.69071247789180   -0.09980424217218   -0.69720259349811
H           2.33274385198473   -0.32758084497693   -1.60748016991475
H           0.09716461379287   -1.27740096860962    1.65148251330364
O          -0.26486293596055   -1.10271119092405    2.55708599007079
H           0.46966085698876   -0.68582154288396    3.01976693499840
O          -0.00766581965819    2.46850188021144    1.78376259270453
H           0.75072340064818    1.83212386599986    1.78051340231953
H          -0.03193084822824    2.79758173164549    0.87880428577122
O          -1.25296777750829   -1.92536361153144   -1.43632893092554
H          -1.61071053717640   -2.74469806751748   -1.09070894258138
H          -0.47056472490710   -1.71175013626520   -0.87507514293715
O          -1.94783734993712    0.52864224012595   -0.54150779488935
H          -1.01406799269328    0.83505016940788   -0.66355894796576
H          -1.94929372931373   -0.37824268657182   -0.91011247863108
O          -1.86509565651900    0.75805247203653    1.93917724307542
H          -2.02947670168007    0.61433691719336    0.89559072188056
H          -1.30965115920118   -0.05502064034155    2.26818592346535
H          -1.19346142825148    1.55119351981181    1.96950350514624
N           1.27591977616595   -0.46529370414586   -2.85430463334901
H           0.64968837022998   -1.25916099619553   -2.78981410032164
H           1.54618767817338   -0.34907814373323   -3.82265793481343
H           0.75751828198152    0.35506630593330   -2.55619112008864
