    26
        -50.45359502  Gyration_radius:  2.53381798068 Dipole_moment: 7.244
 S           0.64183601335000    0.29830018016351    1.07733664117286
O          -0.64791884399180    0.92712788315240    1.04392625582637
O           1.64841914320178    0.91254005546616    0.25279505004475
O           0.51374402382975   -1.18558333985148    0.68553641669323
O           1.12607181267305    0.21115483139967    2.52166901020763
H           2.12126845378126   -0.06415002180745    2.43735592724971
H           0.17665462616986   -1.30734881630668   -0.28261994115484
O          -0.31976624427074   -1.47435624430007   -1.67362440118304
H          -0.39197610648295   -2.40841554076696   -1.87964513892349
O          -2.89894402542475   -0.55605371477960    1.17957233543295
H          -3.58498512012538    0.01120043690388    1.53663485215445
H          -2.06939410556022   -0.04750825876147    1.23765299733305
O           0.66487467223735    1.14362760220048   -2.29964961521900
H           0.45581295065547    0.20950317359207   -2.41651728200085
H           1.13889924614137    1.20243531839929   -1.45566958591211
O          -1.75370356553281    1.93217253328061   -1.33041259794397
H          -0.93780366061591    1.85458590228286   -1.86267911446827
H          -1.45872854924667    1.83336031042732   -0.41501587518490
O          -2.66968368269577   -0.54927703434034   -1.52479749379605
H          -2.90683311690997   -0.69732893815741   -0.58790636488989
H          -2.48789477824613    0.42144379715181   -1.58664254642109
H          -1.29129623117978   -1.11551711517291   -1.65780112607735
N           3.52598653600392   -0.36748125548813    1.89768081625310
H           3.71470682850081   -1.34286028899744    1.70976470837573
H           4.32067686724771    0.03823584397300    2.37364009803419
H           3.36997682649591    0.12019268038308    1.01941596438542
