    26
        -50.46577285  Gyration_radius:  2.41261587221 Dipole_moment: 4.009
 S           1.47199825054226    0.14525572267532    0.31706105437231
O           1.68413769009381   -0.28043631789513    1.67680161880037
O           0.57024592805518    1.29397852615114    0.22430618132852
O           0.74223309375712   -1.03611467935503   -0.44668633922168
O           2.68333217995466    0.34581497254997   -0.46706272024819
H           2.21965650885376    0.14162661107664   -1.83685038271121
H           0.04463536119614   -1.37519297762890    0.18027750200953
O          -1.12251619592578   -1.71016958126622    1.21067663702350
H          -0.70541707309931   -1.91624600620575    2.05226319250380
O          -0.20644610404464   -0.05569647497059    3.50716890644923
H           0.53149895396296   -0.11873912454739    2.85933548889816
H           0.19890723714738    0.20312163719883    4.33523369003290
O          -2.38212749273524   -0.22668255234267   -1.14518088598692
H          -2.10408804588267   -1.09278157650895   -0.83442627130196
H          -2.51075694401542    0.30722143191040   -0.34960722279735
O          -0.41559154902565    1.29962279883593   -2.19638961580048
H          -1.20395328496611    0.74328094362762   -2.01947741648812
H          -0.06810377218166    1.50327006516136   -1.29644655182060
O          -1.73355648892374    0.85449338891021    1.42462449680073
H          -0.90411951610118    1.15202298887753    0.98484441104443
H          -1.49690680242852   -0.80058439476701    1.33826909625534
H          -1.51292328174202    0.84877806364661    2.36776003343331
N           1.70274000040137   -0.02863315351815   -2.78547618412841
H           2.24433885814906    0.30884450472314   -3.57457156063896
H           0.75816777509213    0.51780114894660   -2.66522473757655
H           1.51461469385104   -1.02385597532844   -2.86122241024405
