    26
        -50.46906634  Gyration_radius:  2.46768875863 Dipole_moment: 4.296
 S          -1.46725060608534    1.58316066087958   -0.20535499284614
O          -2.05012362676301    0.28004476845231    0.01372704292940
O          -0.22305779371794    1.48737542992919   -0.97447628396528
O          -1.32263495890457    2.39219318957894    0.98212007805321
O          -2.48280685611739    2.37320773190953   -1.13930044244731
H          -2.31918752884438    3.27051401821967   -0.86881138294036
H          -0.51327708979303    1.29047052746259    1.85663020289298
O           0.03383816151854    0.63236480947888    2.34333520215729
H          -0.23290390234576    0.68928010058001    3.26281069834972
O          -1.41406187643464   -2.12547319781458   -0.67655560856296
H          -1.70602761615830   -1.21950182968187   -0.39720971178687
H          -2.20554314386950   -2.66435925029109   -0.70238675645275
O           2.53233172149116   -1.14346912477725   -0.25491779655485
H           1.50517988019046   -1.00602460823650   -1.30495385369874
H           2.59173058823983   -0.20584358438125    0.04955078040963
O           2.04725030838857    1.34323527734804    0.54533598693558
H           1.31631601772490    1.57299382436188   -0.05321376758903
H           1.61647406687850    1.17089803296552    1.39430514159173
O           0.55992874532969   -1.91648347373448    1.35438959374393
H           0.33173221288149   -1.05882565900222    1.75046813353918
H          -0.16479148651889   -2.13298144656996    0.75124562369020
H           1.98458692460527   -1.58614964928184    0.43524499995849
N           0.61387197902086   -0.81673342089805   -1.92852882435680
H           0.82798402922794   -0.83311990637863   -2.91862387313825
H           0.25147643447607    0.13176467900944   -1.63357317283944
H          -0.11103458443894   -1.50853790916531   -1.68125702696167
