    26
        -50.45038903  Gyration_radius:  2.46445224846 Dipole_moment: 4.458
 S          -0.60325053482054    1.29444250705895    0.96178775893899
O          -1.95016173046336    1.61574943083878    0.60853850130765
O           0.38051202448777    1.62280715749050   -0.03968434083728
O          -0.49949482019418   -0.22189828113641    1.28701320235465
O          -0.22141340832838    1.92679263380637    2.29187163731119
H           0.68385467395754    1.51534224644505    2.54929839135954
H          -1.08737345508659   -0.78561205753321    0.70210327781739
O          -1.99775539947884   -1.65732639319184   -0.24868047483253
H          -2.76357954072648   -1.97133432270824    0.23513304418331
O           2.04761513704911    0.91478047821570    2.76440269634515
H           2.22604024716497    0.35127185513915    1.94530755492150
H           2.68958259361977    1.62839123355714    2.74648998666786
O           0.51045487903787   -2.06542017913132   -1.40130385158041
H           0.48476109851231   -2.74786906523190   -2.07467245376935
H          -0.34641804919340   -2.09067308662116   -0.94869215080971
O          -0.09799635596578    0.46856435600027   -2.44541061936380
H           0.25230675924534   -0.40386934403471   -2.20051872994780
H           0.14670479222472    1.05560146385085   -1.71121122722592
O          -2.64994923328644    0.33581460769624   -1.69065848009640
H          -2.61987358870902    0.99300723542644   -0.97488815080818
H          -1.80691542895049    0.45476624887569   -2.18789896290366
H          -2.33570750255217   -0.92993381269829   -0.88213010386403
N           2.42861851184771   -0.27428759322557    0.44884216626052
H           3.31699119014191   -0.30181652988015   -0.03612552508592
H           1.84642274379653    0.43487216551485    0.00717949818418
H           1.96602437670407   -1.16216298449208    0.29390737546089
