    26
        -50.46138226  Gyration_radius:  2.40840895918 Dipole_moment: 4.039
 S           1.50104462447735    1.09983115948473   -0.01221846186357
O           2.71353829171510    0.33361958115055    0.25004748408479
O           0.58292840238634    0.97446919124769    1.12598736545141
O           0.87128523722057    0.71325371684859   -1.26081417551449
O           1.89961881196123    2.60501668619822   -0.13860915660875
H           1.03767130677409    3.02623995933162   -0.31775917542103
H           0.12095801744925   -0.56284833998577   -1.72796774069030
O          -0.44624576583423   -1.32791205934670   -2.02281542004818
H          -0.11585763155078   -1.57744545334190   -2.88691103723355
O          -0.77028972494894    2.87252392446567   -0.22135017763132
H          -0.55341248211690    2.30315132177892    0.53122490833481
H          -1.26132109934435    2.29817813144570   -0.82455647814610
O          -2.34817838207693    0.62023937840364   -1.32304482932724
H          -3.11955651209842    0.59879640775079   -1.89134513408596
H          -1.72546585074595   -0.04807335606390   -1.65944134534551
O          -1.72247147478043   -0.37785587195666    1.21760340972234
H          -0.91127058555969    0.16336904290914    1.28097549699216
H          -2.18410151480912   -0.02143008580027    0.44360665048155
O          -0.34229537398929   -2.47348169153302    0.44382817468834
H          -1.00816804148454   -1.83029021841826    0.80413936643617
H          -0.31811434304254   -2.26176159512365   -0.50758311257136
H           0.86952978074008   -1.96127896478267    1.16994779346981
N           1.63883945520422   -1.45077955460476    1.75925076780256
H           2.23681193365204   -2.10231153685486    2.25774994390876
H           1.15398287144727   -0.81955348538504    2.39779666477489
H           2.20054002934802   -0.79366626781919    1.11225822834121
