    26
        -50.47064465  Gyration_radius:  2.48510412776 Dipole_moment: 4.193
 S          -0.05762198656272   -0.77139499163769   -0.97804566010729
O           1.37129713656120   -0.99007146888647   -0.79716954214276
O          -0.32900830597049    0.65546694834132   -1.17249405271733
O          -0.82975243722267   -1.29596535647905    0.14629431253534
O          -0.48195722661485   -1.52423701869537   -2.25700470854408
H          -1.46516345847654   -1.66395140945688   -2.12750070784583
H          -0.46701160533450   -0.51102209290850    1.48199136057529
O          -0.19284444481260   -0.01326498142441    2.29825046527661
H          -0.86763469316578   -0.19348035524197    2.95499442478741
O           2.33360385736472   -1.03499311313365    2.00942102769385
H           2.11599385176898   -1.55451619368153    1.22525489743770
H           1.47436041401197   -0.72107992396732    2.34578782746314
O          -2.92447611194227   -1.66287557639941   -1.49160665605237
H          -2.51844580159161   -1.73840140455262   -0.61483064846074
H          -3.18088031788271   -0.72005932211040   -1.57111650582524
O          -2.90872767192954    1.01643695322088   -1.60278334548994
H          -1.94563454819048    0.96211347238339   -1.41441814986967
H          -2.99318057420189    1.51509136979698   -2.41692240859599
O           0.46216448807950    2.20897087717395    0.81567915768092
H           1.90065734525889    1.64523149928274    0.54880126546685
H           0.05933953722746    1.80284414552366    0.01688502671355
H           0.14831583195372    1.64997721348104    1.54690323664550
N           2.68238561220495    0.94980860581400    0.31378390644143
H           3.52028598693212    1.38456034645782   -0.05369281724155
H           2.24026418211947    0.25895238611698   -0.36134471482042
H           2.85367094017915    0.34585940150741    1.15488302958763
