    26
        -50.47078929  Gyration_radius:  2.50455458008 Dipole_moment: 4.960
 S           0.20683098428925    0.19548432461982   -0.96340440478445
O          -0.45587427561450    0.55126475797908   -2.31533374633401
O           1.26139559620165   -0.77266400234582   -1.20068926088684
O           0.69040465946635    1.44053709476588   -0.38781508309852
O          -0.84568877711397   -0.37507297978547   -0.10227932759520
O          -1.90352329754199   -2.48614837334709   -1.31567782893442
H          -1.51388354947529   -1.76507299499824   -0.77709761581190
H          -2.82316862894573   -2.25136830880428   -1.45119560090344
O           2.09721386156774   -1.49993874390441    1.19517046363738
H           2.92797948167737   -1.96136308451921    1.06662324852152
H           1.76190232679458   -1.29489919839832    0.29438529209682
O           1.77525048788320    1.00645508676420    2.04397172453749
H           2.03354418908532    0.06841962955058    1.91703771394400
H           1.63543574079086    1.33462605378689    1.13547558117024
O          -1.05812833386179    3.09093880408877    0.70546068685857
H          -0.45827714788907    2.54653787366612    0.14570780803977
H          -0.63365671790838    3.94658323130914    0.78863433774536
O          -0.14769217374930   -1.81872200353198   -3.23617223486034
H          -0.82188023020940   -2.28075727957138   -2.69486126858604
H          -0.41654296386172   -0.30505519378776   -2.83693355089136
H           0.65190454693581   -1.80874125128668   -2.68850246439313
N          -0.81849201390630    0.88195333382846    2.17774323234531
H           0.24143000670623    0.91805349429049    2.34987673726124
H          -1.35070470716063    0.53314192752339    2.96627287881972
H          -1.11090392765784    1.83425910326115    1.87008794832498
H          -0.92487514651697    0.27154868885153    1.31351473377965
