    26
        -50.45341039  Gyration_radius:  2.50234741756 Dipole_moment: 2.444
 S           0.23666996292316    1.02958747568804   -1.22425246634673
O           1.24433378123474    0.60240826236082   -2.14126510612811
O           0.65522772008547    1.05988391797433    0.15574155992546
O          -1.01684241894089    0.11680759784508   -1.33970687450377
O          -0.33120385137556    2.37748161300671   -1.64286155720512
H          -1.17815351470869    2.50277188458852   -1.08744288015577
H          -0.79209097591161   -0.82266609395356   -1.04708260210735
O          -0.29459376430493   -2.22739690457865   -0.60148868864896
H          -0.64225073565875   -2.92384898764619   -1.16175821367027
O          -0.53945355956881   -0.71442367936490    1.76918104120799
H          -0.02087658440085   -0.03410080978165    1.30076803398840
H          -0.54434273152519   -1.47868862473542    1.17987829036241
O          -2.49913844433258    2.49368783786302   -0.33956833620234
H          -3.15237381018943    2.19592971667977   -0.97698140755792
H          -2.54437654609414    1.83859682774909    0.40799589756763
O          -2.75146442610265    0.74792726421428    1.61900947024230
H          -2.82626552201188    1.17629178076101    2.47345039649208
H          -1.97971630274475    0.13485072612914    1.69142545546272
O           2.14013740130122   -1.79523602446511   -1.21642767961486
H           2.00504209484275   -0.98263822465538   -1.73324048985679
H           2.55833292739763   -1.48907712073012   -0.37304801040780
H           0.69894910967108   -2.15252697802472   -0.82087232427518
N           2.89603163991682   -0.60053686667350    1.07615204009017
H           3.82324447500619   -0.22350065042234    1.22450816251508
H           2.58146822922756   -1.00624119603344    1.94894703441350
H           2.27370586627251    0.17465724618528    0.85893926439671
