    26
        -50.46147717  Gyration_radius:  2.46614609888 Dipole_moment: 7.092
 S           1.96097900941800    0.42074015062789   -0.36618069488677
O           1.52285264433628   -0.28003447117592   -1.54962003655732
O           2.18739390101003   -0.49953941828971    0.75080008637052
O           1.10586313320705    1.52606815308361    0.03417927796096
O           3.36400382060638    1.06323414588902   -0.71644170791092
H           3.47793705996782    1.75662847698934   -0.07325182111025
H           0.20912003028467    0.82131871093736    1.20971255512266
O          -0.28279045720620    0.29454802851244    1.88209563551124
H           0.39679333866105   -0.06195697240659    2.45808991100846
O          -2.71406040591376    1.55643743946834    1.34453846496617
H          -1.91653131307187    1.19650915831007    1.75818290425742
H          -3.25032887730658    0.80506866944518    1.08242045356155
O          -1.37919754095270    2.32933643285109   -0.95684052337523
H          -1.93942663342869    2.26927941886942   -0.16252086375687
H          -0.46535509456402    2.27912085768415   -0.64114076173738
O          -1.18962350154557   -0.17205006434920   -1.84807863869104
H          -1.41379704992197    0.76934851110465   -1.65899053706689
H          -0.22269650962949   -0.17209492664692   -1.94046664984031
O          -1.40165824887589   -1.60010513712228    0.30193338609501
H          -1.49059848943547   -1.07842528761563   -0.55083776415176
H          -0.12275525800371   -2.26751071362041    0.00092349578805
H          -1.13258100591418   -0.93924007328509    0.97174354947541
N           0.92440027367498   -2.50838818483025   -0.26552176709697
H           1.16624875729577   -3.48555674170696   -0.14257142777901
H           1.52969748857924   -1.84343854931995    0.30310804815599
H           1.07611094871393   -2.17929760340687   -1.22526461435009
