    26
        -50.45875076  Gyration_radius:  2.52028889063 Dipole_moment: 10.931
 S           0.82362914491919    0.53947602003212    0.51345376206831
O           0.07968268120476    0.62430808906550    1.73761131527560
O           0.19669041501250    1.26611135092490   -0.58975304733291
O           0.88406139842958   -0.96908860751344    0.05096078293027
O           2.24023530902906    0.89400926518362    0.64398223555157
H           2.84093285436571    0.25684169378402   -0.42976989595985
H          -0.05755747006762   -1.30564145677703    0.01277087281339
O          -1.57735191944979   -1.72501287028888   -0.13531260858659
H          -1.77918279925475   -2.20558208599324   -0.93970929635244
O          -2.60241063799216    1.21267804564597    2.23715318867414
H          -1.65226398376535    1.39433197312407    2.24137503560765
H          -2.66479593874142    0.31849549367043    2.61123662582979
O          -1.61783748003113   -1.35782779299728    2.70190245754761
H          -0.87414952439396   -0.75353661113791    2.55729081950884
H          -1.75929416424605   -1.79000199635000    1.85240564934130
O           1.30726442558026    0.79758067557584   -2.87081354833677
H           1.36565314783772    1.63907534915221   -3.32694116966843
H           0.78467862122709    0.97913131721945   -2.04231180528491
O          -2.42312478319736    0.67570443976615   -0.37409841866336
H          -1.54314109216308    1.06577914384296   -0.52405362829323
H          -2.01207152160558   -0.81133049890155   -0.23646591391083
H          -2.67487957913970    0.95385125269525    0.53842448490020
N           3.15116096155506   -0.30668155099932   -1.35686822407424
H           2.88111439265013   -1.27401464188070   -1.19601850897019
H           4.14229361131847   -0.22187172697294   -1.55655476362640
H           2.54066393091925    0.10321575012846   -2.11989639098686
