    26
        -50.45875077  Gyration_radius:  2.52031319584 Dipole_moment: 10.931
 S           1.03580213639505    0.24759050957674   -0.31422069073673
O           0.92877648365725   -0.77358895355206    0.72686214701400
O           0.93052060998309    1.58454232974234    0.19635391915232
O          -0.16607821960580   -0.02263027060300   -1.30204366690027
O           2.20901307269164    0.01783339122003   -1.16292155299801
H           1.84809248466100   -1.07242780778371   -1.93805366566638
H          -1.00984748752244    0.18987937384366   -0.80780894150381
O          -2.29961156199119    0.43361738957800    0.07800656184579
H          -2.97595667033857   -0.23941877145238   -0.01322701897478
O          -0.16995277886309    2.58277440413309    2.55893720192180
H           0.55503300859524    2.35512404633296    1.96029948371148
H          -0.78867277748465    3.07131178824395    1.99156463840312
O           0.72229656514295   -3.16515428293060   -0.21866583452791
H           0.73202194762224   -2.27177944309479    0.22207899369748
H           1.27968372679318   -3.72535750766829    0.32453623168091
O          -1.37378411859232    3.14073371892282    0.10287585341013
H          -0.49570092644354    2.76111979458362   -0.05209984863428
H          -1.98722746838438    2.40464392724190    0.00145132194741
O          -1.08319305504397    0.08522173810809    2.29943414268013
H          -1.90892320746037    0.31586907026385    1.00941577251694
H          -0.28235207751676   -0.30247811511509    1.90274896584039
H          -0.81334893553137    0.98812850875259    2.59164851696921
N           1.39743869213848   -1.96630301369198   -2.45883064013036
H           0.54455409017278   -1.62928293147249   -2.89877384602648
H           1.14470276132403   -2.62205266669992   -1.66569859675679
H           2.02671370560312   -2.38791621647956   -3.13386942793588
