    26
        -50.47294860  Gyration_radius:  2.44412366289 Dipole_moment: 1.560
 S           1.41153798954933    0.91502568528789   -1.14124515569020
O           2.00399988384017   -0.36253603608979   -0.77599569357047
O           0.97984766440501    1.67528385173590    0.01891473567803
O           0.38090417215009    0.77155269925250   -2.14960322174627
O           2.56542387798626    1.77254686702436   -1.80512408289976
H           2.69683321338231    1.30069660960577   -2.61973286050492
H          -0.90291870784489   -0.13921027469790   -1.85876318048879
O          -1.64853520033328   -0.76890329343830   -1.67788782627653
H          -2.23672083397430   -0.69889667381804   -2.43122655623935
O           1.84966159110660    0.07395243256729    1.89189813118527
H           2.37620081715010   -0.40722837902906    1.23973629587290
H           0.50271609080890   -0.81883310330971    1.97891968255585
O           0.29976653517290   -2.38790532238532   -0.59284606559600
H          -0.45310617431042   -2.06076760238520   -1.11152183681116
H           1.01723951703833   -1.73590541499615   -0.75025297164799
O          -1.48983516209969    2.46574158794087    0.54494107155921
H          -1.37520162326253    3.13006015182579    1.22603394211934
H          -0.58713803966244    2.22563479091612    0.24752219065767
O          -2.35679690947561   -0.04629833235693    0.86694796683251
H           1.53405775221641    0.84121876270478    1.36840650520407
H          -2.15513758504100    0.91304366067559    0.83209875085450
H          -2.27961788078877   -0.34061813712098   -0.05971939348539
N          -0.33134752346457   -1.43855027010742    1.77810327013170
H          -1.18366723984895   -0.84002086308434    1.53242684329392
H          -0.52814869345725   -2.05824880906591    2.55530301456482
H          -0.09001754125483   -1.98083458764864    0.89266645445532
