    26
        -50.46321432  Gyration_radius:  2.45779683966 Dipole_moment: 4.014
 S           1.49506243954490    0.52580762142965   -0.30012276428190
O           1.88820321343054    1.42914662531191    0.75286426760890
O           0.54915815208516    1.13979483604656   -1.24608349376692
O           0.67964676376187   -0.65859646124432    0.37601931593468
O           2.56791289279448   -0.15917167501319   -0.99378550916062
H           1.71436983237586   -0.91045198440059   -2.11869281428424
H          -0.10227902076676   -0.25539402015383    0.85574852931765
O          -1.30579780408712    0.47386280792242    1.60941311367295
H          -0.78988948609852    0.58021134536567    2.43071906190376
O           0.82374083188402    0.98632816342679    3.15850711893661
H           1.45155940485647    0.47694084756710    3.67190936443630
H           1.28284507236844    1.21321896884717    2.32165118112789
O          -2.63877722742624   -1.15101248633625   -0.23025019460797
H          -3.48323495180773   -1.42816700181084    0.12795861032560
H          -2.24626523016156   -0.54940122809507    0.42311590843147
O          -0.55810974567399   -2.64936192568830   -1.08980872400020
H          -1.41282117676362   -2.21102703638401   -0.89999150263326
H           0.00578227180149   -2.39050387290311   -0.34741630746187
O          -0.68957639175900    2.75006447396427    0.44307340560350
H           0.05642953911213    3.06169375952856    0.96370489089137
H          -0.28398933317692    2.28163787313968   -0.31534800623271
H          -1.26802709652939    1.37293238390037    1.19011177730994
N           0.78642946242559   -0.99546865065312   -2.63188171702955
H           0.20322295435261   -1.75709624757816   -2.16454623528403
H           0.88270525249126   -1.11749054062374   -3.63404135612994
H           0.39169939084383   -0.05849658552726   -2.35282790055147
