    26
        -50.46182308  Gyration_radius:  2.41331873303 Dipole_moment: 5.184
 S          -0.98626606018999    1.42491951894523   -0.15421241463025
O           0.41696921385035    1.37746661700199   -0.57553458435971
O          -1.15104578722042    2.03308750645308    1.13635776282888
O          -1.55898656268578    0.06981544540846   -0.21043634120425
O          -1.75098993169489    2.28074101228249   -1.20961258789167
H          -1.69109401564150    1.73598264921115   -2.01477383508535
H          -1.04709995292848   -0.86718114487330    0.99390316844619
O          -0.68520523937621   -1.42064275809999    1.73212093009957
H          -1.39181560200136   -2.01305129692444    1.99279452466149
O           1.80762282987986   -1.71437953332909    0.64347754146028
H           1.60574171018154   -1.62321948398339   -0.33639093148799
H           0.94599318523210   -1.84210924900337    1.07970787000166
O          -1.70198529921876    0.12632703516685   -2.79859780202474
H          -1.66559529507135   -0.12093659410715   -1.84817221948539
H          -2.58132013414530   -0.10055122163764   -3.10844258723296
O           2.09485726732694    0.69545501597610    1.18821528431686
H           1.51390218984165    1.07832562113917    0.43909092118965
H           2.10149703829760   -0.36774734284932    0.98266843424281
O           0.31512948688422    0.82559295927720    2.95943435388256
H          -0.28157684353335    1.42237536728660    2.45401668317783
H          -0.06658847591332   -0.06131843541751    2.84122284173454
H           1.49003161804132    0.80053100269754    2.03476233107685
N           1.14913523617146   -1.08585058481676   -1.83348673568421
H           0.85712268716893   -0.14292896195916   -1.57283624426137
H           0.36431005685190   -1.51657761207729   -2.30598677809752
H           1.89725669989665   -0.99412554176904   -2.50928957567707
