    26
        -50.47157785  Gyration_radius:  2.49388305783 Dipole_moment: 3.798
 S          -0.69921466112083   -1.04317699120030   -0.78159209184936
O          -0.64281284254752   -1.37546180582847    0.62250058110372
O           0.59505871542405   -0.60445257237604   -1.28870838512414
O          -1.74188066385321   -0.04690718722255   -1.05993736173903
O          -1.05726715593361   -2.32880156533344   -1.59351324735125
H          -1.98761727183577   -2.48368928416360   -1.34576356231603
H          -1.43491357016679    1.30118238746955   -0.24491329262938
O          -1.20076227583960    2.11789128705791    0.26794475586136
H          -1.96195431745781    2.69704128268640    0.20440581004859
O          -3.59884608835803   -1.89403951718578   -0.97804555711550
H          -3.10037903541056   -1.05422461588530   -0.91086704335926
H          -4.18350970820342   -1.80509625441164   -1.73417328376762
O           2.67813256548304   -1.47889265522548    0.04387181201717
H           1.83578781200302   -1.29170205521737   -0.43398227525099
H           3.32831379459558   -1.65794965844742   -0.63772310963623
O           1.30899570436333    1.92822677286073   -0.84085069645277
H           0.45843759088737    2.27046353056358   -0.51883649911463
H           1.08752934742019    1.04552332133035   -1.20591413843226
O          -0.10841670627384    0.57413332983399    2.28481267596838
H          -0.57642245270610    1.26661857662160    1.78925102613941
H          -0.34649926902692   -0.25756261917650    1.81010483311267
H           1.37498128631714    0.71260707236467    1.86383313018095
N           2.30351399044447    0.83513661897224    1.33260784329571
H           2.05359341676152    1.41171071736200    0.47256139714033
H           2.59654218070410   -0.10589791991252    0.97877914967154
H           3.01960960433526    1.26731982447235    1.90414751960129
