    26
        -50.44799295  Gyration_radius:  2.63981244555 Dipole_moment: 7.744
 S           1.65318433289453   -0.07322439647225    0.00576561261983
O           1.32748445266552    0.53426823807826    1.25434414605917
O           1.13440398611619    0.60033678361679   -1.16268758769341
O           1.16632364414740   -1.54280804670080   -0.02822978376923
O           3.16663583714686   -0.24095950013124   -0.13710148574599
H           3.28103127699780   -0.59694588653038   -1.09636445501699
H           0.21094455842413   -1.62962504273123    0.32621705695270
O          -1.17801778616191   -1.71365239008779    0.92119320716997
H          -1.33956767117103   -2.58215535830687    1.29515773445355
O          -1.04932250115896    2.06987886944032   -0.70534546968721
H          -0.23481467596485    1.54769033040480   -0.84110446003109
H          -0.97295219230657    2.84050285842840   -1.26992789562281
O          -3.02143749321938    0.06398825785039   -0.34427966184497
H          -2.41008674810661    0.71544033506850   -0.71626495755946
H          -2.47024576895339   -0.66767558128651   -0.03790662991190
O          -2.46102101330591    1.77178531932002    1.74774820203703
H          -1.85564698259110    2.17750280878401    1.11251974528139
H          -3.01100528963931    1.18414453495210    1.19960346185497
O          -0.84264379619173   -0.04619277762365    2.80113047007841
H          -1.48232553312205    0.67763540400611    2.58134842242180
H          -1.09789878119586   -1.06885889882412    1.72175721067745
H           0.02211495441173    0.27873622073419    2.50432336489343
N           2.98229850391781   -1.03191380836163   -2.55912881345433
H           3.61514403859492   -0.79859604556430   -3.31266723175920
H           2.14375192366482   -0.46257721238202   -2.62815053441857
H           2.72366871409938   -2.00672501568626   -2.63194965799131
