    26
        -50.44692312  Gyration_radius:  2.64892352832 Dipole_moment: 2.876
 S           0.36625284131019   -0.76440367615760   -1.59491332197720
O          -0.20134290426086    0.54347369489141   -1.54775068499295
O          -0.45826413427145   -1.84308336392844   -2.04730911166793
O           0.91630757303750   -1.17536386380026   -0.21289227475474
O           1.65456104590393   -0.69204384903248   -2.46780057474609
H           1.95182097727391   -1.62814403698618   -2.56805136018451
H           1.20749287998483   -0.38520920282448    0.38267487771890
O           1.63791633089605    0.75502960188156    1.23814108128270
H           2.58563451454392    0.89176591977378    1.18614086935846
O          -1.60493905662481    2.76547500290867    1.70519796216958
H          -1.45779006428503    1.85502759124467    2.06318039918246
H          -1.58855866003345    3.35607100247264    2.45922317870766
O          -0.95405641118751    0.30944001392652    2.50202601109491
H          -0.00979117871010    0.28752805092091    2.31444739206020
H          -1.38686444743834   -0.20001457114195    1.78013281271136
O           1.77080437554343   -3.29507480584980   -2.26377319791324
H           0.81030849647228   -3.14332691474863   -2.28955234209992
H           1.98021419420224   -3.55345028652735   -1.36255128048650
O           0.47113924681666    2.66598331603434    0.03558772737130
H          -0.33006428027259    2.83742571802256    0.58557678767555
H           1.20173167184288    1.57538189661611    0.80097426310411
H           0.16208533489492    2.13115423685662   -0.71197956928030
N          -2.08549836640608   -0.78013857033165    0.26442134007021
H          -1.67274023134072   -1.60118815872796   -0.16131873373335
H          -1.87535348608569   -0.00683169451337   -0.35704576043726
H          -3.09100623179317   -0.90548304092683    0.26721348972509
