    26
        -50.46081186  Gyration_radius:  2.48376029005 Dipole_moment: 6.477
 S           0.16426901774670   -0.67049186354365   -0.84006888729056
O          -0.17539368003797   -1.84828783410478   -1.62431805630392
O          -0.82801274835324    0.39857253813127   -1.04854874215239
O          -0.00227215545279   -1.11988276400322    0.64458257461923
O           1.52072583972738   -0.19892232240607   -1.02064876429630
O           1.92027525897278    2.44014190124371   -1.49235779161286
H           1.67929039301515    2.60850485984407   -2.40426903553491
H           1.86588869648116    1.47394344970193   -1.37072323203930
O          -2.44022665006576   -1.91350759726129    1.48820278201047
H          -1.48438634681723   -1.78414822539399    1.32732116852360
H          -2.66672577770135   -1.33425340910135    2.21852274059542
O           3.18277036221517    0.07787270495580    1.08329674708666
H           3.61827408834983   -0.76217206360690    1.23374950264036
H           2.70187094556572   -0.00927116393591    0.23771840319670
O          -0.02571118109328    2.50398885405860    0.41819674165480
H          -0.46008026286274    1.83424428888114   -0.14190821618235
H           0.74762217918651    2.77755227325397   -0.10722207233359
O           0.79862529879345    0.70373165972593    2.12030176267296
H           0.49990506847274    1.50925015606476    1.61134595455039
H           0.33361542457830   -0.34809912795560    1.30617843218498
H           1.76355212387304    0.62723713390973    1.96132502978456
N          -2.60764011748680   -1.40951955676077   -1.13027474805428
H          -2.81803509444934   -1.68827536743520   -0.14590299448547
H          -2.20260147648326   -0.42991515928754   -1.12305440686169
H          -1.69671089230997   -1.89841614276566   -1.43807446064779
H          -3.38888831386076   -1.53987720220911   -1.76337042172552
