    26
        -50.45019471  Gyration_radius:  2.45261097095 Dipole_moment: 4.161
 S          -1.34393351868875   -0.40173958252638   -1.40393749777670
O          -1.93995984181983    0.33394366886075   -2.46195634848856
O          -1.18729485604525    0.28209885345679   -0.14541750664432
O           0.04158174133280   -0.90003989605568   -1.88475243238135
O          -2.12768504505601   -1.70626702580600   -1.13603799589413
H          -2.14624852045658   -1.85623630142879   -0.13962931184205
H           0.70302635221209   -0.97089359478010   -1.13108392519619
O           1.82479700042206   -0.97252831521392   -0.03860680364027
H           2.64830321703817   -1.27595762904765   -0.42465674743837
O           0.02266168694230    1.30957636161468    2.04686116619606
H          -0.54590982742442    1.09296483921546    1.29056933545454
H           0.21040378111835    0.46195090902996    2.46617401506203
O          -2.10414614528800   -1.80923999133908    1.43694972774863
H          -2.45642329025907   -0.92751080815191    1.58758603840636
H          -1.17286128545353   -1.76792960551203    1.74227359017175
O           0.47894136907263   -1.55091639295263    2.23252026616739
H           0.89800183436257   -2.28643792056908    2.68206857198829
H           0.99081503493403   -1.38128244690513    1.41631585607258
O           1.91552591473923    1.53413153238337    0.14759370224614
H           1.91230411643843    0.06315768035642    0.05002534050819
H           1.38290549814838    1.84064684514967   -0.62961711548826
H           1.33155753606176    1.66301576109808    0.92649385200047
N           0.34441666671288    2.23865769504883   -1.95151397761983
H          -0.42973889969418    1.58445352586236   -2.01095327794305
H           0.80211595620821    2.24208338244116   -2.85537433964431
H          -0.05315647556474    3.16029846577015   -1.81189418202905
