    26
        -50.45019483  Gyration_radius:  2.45251624833 Dipole_moment: 4.161
 S          -0.40109206794725    0.18044490564040   -1.93500818733035
O           0.37406619482458    0.40163180221484   -3.10379195462036
O          -0.05416241730808    0.95422485108591   -0.77013940088398
O          -0.32329773901665   -1.32600895660629   -1.58318178090973
O          -1.90187781627730    0.41039860804442   -2.22291360243553
H          -2.30435525891646    0.86488144653690   -1.41858121082386
H          -0.38986676799251   -1.48831120115092   -0.59339050101793
O          -0.34569130486409   -1.80927705419169    0.93872941405115
H          -0.28139017286646   -2.75730758731854    1.06671416583608
O           0.67942215502667    1.51734431514185    1.77381255095187
H          -0.15322204425575    1.25206420299472    2.18099767862277
H           0.50843859884308    1.49443507116933    0.81866463516273
O          -1.86424630724267    0.14205407742985    2.02987522411830
H          -2.53390970821624   -0.24416737308403    2.59653478524252
H          -1.34534374817424   -0.59580278868879    1.65122365164219
O          -2.65897332970327    1.63957005135530   -0.09033871002535
H          -2.42410150958679    1.08873922836616    0.68676797774957
H          -1.99232627238375    2.33168334948623   -0.11715107782824
O           1.93702744126688   -0.80946115117341    1.27889924674468
H           1.68075682336613    0.08176728812574    1.60192045527215
H           0.60911989728631   -1.42886249929720    1.11693817425212
H           2.26412832815737   -0.66624520307810    0.35464304357016
N           2.66735318653158   -0.36937064191215   -1.29856409079970
H           3.03454672581150   -1.17642894002821   -1.78874596712808
H           3.36541826362919    0.36278196916413   -1.35855755097606
H           1.85357885000936   -0.05077777023893   -1.81535697843986
