    26
        -50.46167939  Gyration_radius:  2.40127392566 Dipole_moment: 7.745
 S           0.96206147408974    0.47090877819588   -1.12729268892886
O           0.99348922094675    0.46308121322830    0.34149262135650
O           0.64445824666102    1.75648942289351   -1.67317036688676
O          -0.19142879547032   -0.54683568838807   -1.51148977646548
O           2.15417584758812   -0.17468043685792   -1.66821879955463
H           1.95051893570851   -1.50671841259920   -1.21121954823554
H          -1.06787513371986   -0.13803408379775   -1.26162352212240
O          -2.44183570088445    0.51242566346676   -0.77865581937368
H          -3.06237817779876    0.58844911319514   -1.50520644244710
O          -0.26548939250549    2.21709490533749    1.99405751568610
H           0.37683790685675    1.71850876634767    1.45986292990757
H          -0.78410699055820    1.55504114446938    2.46011989679066
O           1.44605579654617   -1.78847857929642    1.72588555420863
H           0.52748830398193   -1.83603190458820    2.02575294975239
H           1.54917759777795   -0.86045694476870    1.43676826520515
O          -1.16063012913346   -0.74653120445349    1.45101251354830
H          -0.44537140665189   -0.25105671787476    1.01272589252858
H          -1.94798426153852   -0.55143848087700    0.93399029706358
O          -1.43216926538435    2.83287596440994   -0.37603905539351
H          -2.13983465114989    1.45976431212815   -0.57808786105565
H          -1.09949897794806    2.85012258872774    0.54380936627529
H          -0.64340932212361    2.66226131889380   -0.92762415583796
N           1.61092763910943   -2.48129876688225   -0.79854527417845
H           0.66894597934215   -2.61079973599029   -1.16386989690976
H           1.57176548175411   -2.35252626710725    0.26461816291254
H           2.22610976437654   -3.24213597783246   -1.06905274786151
