    26
        -50.45514394  Gyration_radius:  2.42747415957 Dipole_moment: 4.701
 S           0.24240420578283    0.00131556978178    1.60017032545899
O          -0.88623763844021   -0.09304998524072    2.46755246216100
O           0.18037858873077    1.09488082044142    0.64917517901042
O           0.39402429756779   -1.31862373821756    0.79211999103139
O           1.54293084551723    0.06669499695235    2.36455568641691
H           2.24846715447632    0.40399987787776    1.65979272779647
H          -0.44030484135369   -1.48411194462420    0.24708754018890
O          -1.76576243293022   -1.61890631269142   -0.55353557378193
H          -2.14420957115396   -2.49637609840406   -0.47063438126177
O           2.98645879151725    0.92411537463158    0.52907995112788
H           2.89094645337522    0.22986540379792   -0.20867623612643
H           2.42167251187371    1.65726152846091    0.26479757898167
O          -0.12890118249289    0.27716419566393   -1.93162869719183
H          -0.77971377253643   -0.42326459095273   -1.80894098850079
H           0.01032336748306    0.65850611699670   -1.04878565722687
O          -2.12216761707237    2.19430047281048   -0.33630545196164
H          -1.94533177867637    2.06682105751451   -1.27257818885545
H          -1.28054455885190    2.02399137307849    0.11700480371638
O          -3.10233319076003    0.00473294395951    0.89871922973040
H          -2.98693772629455    0.88141965284126    0.47589012748025
H          -2.38209289104943   -0.99771439254637   -0.03558152477508
H          -2.50546032628647    0.00832432313025    1.66673713489475
N           2.49593662078788   -0.83586025592275   -1.34772092864788
H           1.67415074436700   -0.45932441500083   -1.82191228118847
H           2.20298124534495   -1.66795180909463   -0.85065438539687
H           3.17932267105553   -1.09821014517050   -2.04572844311583
