    26
        -50.45209606  Gyration_radius:  2.57782277929 Dipole_moment: 6.607
 S          -0.59891028583412    0.93128134177232   -0.16323968378267
O          -0.69382670035608    0.20872606324380    1.08217376913398
O          -1.39504531184053    0.39853393897131   -1.22208047224959
O           0.90067483053484    0.96651041790889   -0.58172715322692
O          -0.90467128043585    2.40362000846961    0.04429528731164
H          -0.12101417945121    2.79074984242560    0.59262678824667
H           1.17002155256587    0.05271129296900   -0.93125189510348
O           1.46896405527165   -1.39985421974981   -1.32475185442758
H           2.34168997100668   -1.70889609483872   -1.07413689745252
O           1.13776795020391    3.10344545040404    1.33339517225960
H           1.07576082122707    2.51213205780603    2.14496567138134
H           1.80946136917295    2.72062987096533    0.76210327854840
O          -2.28777302974706   -2.33195755015051   -1.47821521560975
H          -2.55287819764663   -1.42755360121157   -1.27807086575555
H          -1.78309554013725   -2.25112437387593   -2.30905463415211
O          -0.57218478302275   -1.24909867164608   -3.32566267200091
H          -0.91016082020410   -0.48249635566970   -2.84210624121100
H           0.29596972474250   -1.42656254894907   -2.94664820476088
O          -0.28429968403037   -2.34487632290598    0.26271665214316
H          -0.51033799897229   -1.52979126767732    0.74071910368400
H          -1.06548362993092   -2.52883482543848   -0.31624636596152
H           0.80498694575606   -1.88064469312506   -0.71715153024854
N           0.77605077781620    1.33069150760484    3.25220723448596
H           1.50595404284133    0.73213629214814    3.61752800825825
H           0.17978208454393    0.76830775574541    2.64451862292258
H           0.21259732624906    1.64221468472659    4.03309409738643
