    26
        -50.47291095  Gyration_radius:  2.43271316912 Dipole_moment: 3.129
 S           0.19453726634848    0.24746639583464   -1.05481587106411
O           0.99992488195661   -0.86530365479152   -1.52186290305910
O          -0.77942994556499    0.67757999818925   -2.18227553892647
O          -0.62059296513764   -0.14331366213907    0.10068255866183
O           0.99613125560666    1.42203421076356   -0.72141426419271
O          -1.88216950195328   -2.38875645690961   -0.40707345789265
H          -1.41163674466725   -1.56394223082816   -0.14979136564470
H          -2.79210645623837   -2.27746535121848   -0.12651627760210
O           1.67851798991313   -1.83511097941209    0.82413486222792
H           1.53144768304231   -1.57534012391690   -0.11456855415614
H           0.87058332923049   -2.28328162729417    1.08712420075315
O          -0.58313006755390    1.22255342764856    2.40243985843737
H          -0.69183674949643    2.10635899234917    2.00154563706619
H          -0.83323558355959    0.61873093427255    1.67633706738592
O          -0.58237404597942    3.18253495167164    0.53507410200809
H           0.01838491050560    2.62983281817739   -0.00381181239663
H          -1.31440081729762    3.41155268421357   -0.03928972788624
O          -1.12835995676988   -1.75891453283559   -2.92513439995949
H          -1.53599322153760   -2.16538481236583   -2.13219428098498
H          -1.05179933879474   -0.18943115423705   -2.60503507702834
H          -0.17575152590475   -1.84743772204449   -2.77958670586882
N           1.85394644611146    0.68220909148784    1.65431852274279
H           2.68993229743823    1.03021848634645    2.11092384625117
H           1.88421057477206   -0.36205854745950    1.49468172594748
H           0.94860246796257    0.92601904157601    2.17855921021506
H           1.71659783756504    1.09864983290264    0.69754865496268
