    26
        -50.45875109  Gyration_radius:  2.52093045857 Dipole_moment: 10.925
 S           0.65046327069582    0.43365604108037   -0.78677339839818
O          -0.21053908093967    1.57014791491175   -0.94841500718076
O           0.00414440935907   -0.82972792453908   -1.13935998721584
O           1.04712810034245    0.29993175575900    0.73566983484279
O           1.95193439764806    0.56547072373045   -1.44895711169771
H           2.76518242102753   -0.31797655978013   -0.75841837177044
H           0.19698454521840    0.28559615553931    1.26326744453215
O          -1.19137197803715    0.15026014189211    2.01322116005054
H          -1.21858630614886   -0.54213028509005    2.67551494178040
O          -2.99187893408149    1.78101325410554   -1.05254481876726
H          -2.09927503895412    1.79946879837910   -1.42488536658407
H          -2.91763832037629    2.33288100563514   -0.25670543500495
O           1.39932360162732   -2.90019819226337   -0.48802654823544
H           0.77391984187904   -2.15737064964644   -0.71048027043991
H           1.33621754656840   -3.51657563285931   -1.21997614653295
O          -1.58319999962668    2.83717875203365    1.11294649212046
H          -0.95833124950268    2.61048895837158    0.40776047195277
H          -1.55416641002897    2.09221786113736    1.72334384187978
O          -2.45747868901936   -0.64188878036181   -0.06159097364499
H          -1.65956694317030   -0.82161788363121   -0.59092543582235
H          -1.78249663779832   -0.16721870379607    1.24909816391553
H          -2.84699524236793    0.17491901514665   -0.45482064170217
N           3.26716324892023   -1.08981606501211   -0.10558756210521
H           2.66561545835042   -1.95387538140964   -0.22467517701086
H           3.17584616573243   -0.74766894882298    0.84791455108228
H           4.23760181267453   -1.24716538048455   -0.35659465005873
