    26
        -50.45785155  Gyration_radius:  2.51776892741 Dipole_moment: 10.759
 S          -0.10782430071226    1.15190161899929   -0.09818139467157
O          -0.42669204962211    0.70892475975340    1.25714459664621
O          -1.19116648123231    0.96891420653454   -1.02101801485405
O           1.11347374229352    0.25089128478846   -0.55809163459317
O           0.47264491460724    2.49620950407318   -0.10477954986949
H           1.76083581366522    2.31459257000128    0.37272065587510
H           0.76211019746977   -0.66254714113266   -0.73935485356253
O           0.14759435494243   -2.13997498506711   -0.86258887692930
H           0.67709461727398   -2.88935254671010   -0.58636636093888
O           1.72590746039052    0.49391635804647    2.66495194355105
H           0.83223409897908    0.60392185294734    2.24186217707953
H           1.82447193130564   -0.44623374090597    2.82521561410924
O          -3.43245786544796   -0.70431379432896   -0.84928781541435
H          -2.98235224384028    0.15055682569413   -0.80501876163616
H          -3.11934850123700   -1.08229085008287   -1.68818467688987
O          -1.56061323461824   -1.07372238960027   -2.87639068272035
H          -0.94010143268539   -1.66987220366742   -2.44137051087432
H          -1.40062506596367   -0.20937643213440   -2.46943706866333
O          -1.64703246593311   -1.65346544488333    0.89008067595880
H          -0.59888343950483   -2.04677703425988   -0.17866585726921
H          -1.30560712375910   -0.78692835376225    1.18010735689390
H          -2.44784550581771   -1.43807894052704    0.35480858046357
N           2.76745574041862    2.00589234993883    0.77855191132552
H           3.23127324914152    1.46951710687278    0.05105403522413
H           2.52516364046956    1.38030695349664    1.59736941757293
H           3.32028996971737    2.80738847597162    1.06486909450204
