    26
        -50.45034186  Gyration_radius:  2.64997811586 Dipole_moment: 5.103
 S           0.80028553425582    0.08300881040165   -1.32102360304968
O          -0.46417113733097    0.54326309287370   -1.82926235750266
O           0.78181123111110   -1.13823982617440   -0.57352764502340
O           1.39107469798591    1.20766734360173   -0.44114303147935
O           1.79779533209781   -0.03987221803141   -2.48209858691407
H           1.63066679086133    0.79127784415451   -3.06434565656934
H           1.62361134683192    0.81414346376307    0.48149431899211
O          -0.79253754709986    0.57064775613796    2.53276877215720
H          -1.05947708516262    1.41856892916557    2.88909066499832
O          -0.74079161165300   -2.15095437144747    3.06932661814880
H          -1.44127198977814   -2.41206415455098    3.66892473758408
H          -0.76099184491093   -1.18097968305585    3.02192771978026
O          -1.45093447431293   -2.45316569948149    0.40913603628402
H          -1.18125646157960   -2.53958037102922    1.34107033026631
H          -0.64004029035592   -2.22749624144661   -0.06839016513697
O           1.71665454894588    0.03583675685140    1.76293316520779
H           0.85270313569329    0.25324529463490    2.18029841339119
H           1.61175034417391   -0.85298977027531    1.40087019444763
O          -2.08970825568100    0.13623897598953    0.33574376175014
H          -1.62778077612929    0.38877462942412   -0.47877589515438
H          -2.07324309626304   -0.85054007207811    0.33221493568406
H          -1.30895478032903    0.44862742055704    1.67763292102982
N           1.01469615015986    2.09253341328807   -3.66191895170630
H           0.11839021794313    1.93662253050954   -3.20812030822993
H           0.87711620923081    2.17173035795102   -4.66076013926623
H           1.41460380139525    2.95369576829654   -3.31406621966868
