    26
        -50.45034193  Gyration_radius:  2.64961779521 Dipole_moment: 5.106
 S           0.81636236915673    0.33903975374420   -1.26975949612052
O           1.85972042583997   -0.33404259248121   -0.54358293808476
O           0.11957694216503    1.37719016564418   -0.57164354822365
O          -0.19838461394829   -0.73011646341791   -1.73397999501675
O           1.39060167846282    0.89660441020979   -2.58039714820465
H           2.00985623868556    0.15565810231149   -2.93433434793392
H          -1.13830761852504   -0.44651826983591   -1.42368212088409
O          -1.87389801687544   -1.15717734725500    1.58492752205644
H          -2.04178488165211   -2.09154327493908    1.71138929154116
O           0.21651098569772    1.90871961090045    2.14648730103255
H           0.28048604241661    1.97592757533991    1.18321694252385
H          -0.73842875377081    1.90667994061420    2.33813600612971
O          -2.34697288236683    0.11046170384957   -0.72687812814016
H          -2.00596444402945    0.99108788701075   -0.52604970980762
H          -2.31888400328845   -0.38248692098874    0.12402265150110
O          -2.46458706588559    1.36428065461393    2.58016965429343
H          -2.68956380184697    1.33927894516067    3.51131705053844
H          -2.38127040963125    0.44163529365307    2.28828816018294
O           0.65736301908377   -0.70978857181080    1.88733538529390
H          -0.88195234983333   -1.03081066681068    1.69786246563865
H           1.18119895634889   -0.70088264897443    1.07120022361540
H           0.62049072206348    0.23613067669290    2.16655664108083
N           2.86029484088572   -1.14562578041698   -3.05112980481503
H           2.39231199935607   -1.92238984723591   -3.49826878478949
H           2.86190751554485   -1.29476038987428   -2.04547063753520
H           3.81331710595429   -1.09655193574556   -3.38573263596647
