    26
        -50.46485771  Gyration_radius:  2.56532350946 Dipole_moment: 4.107
 S          -0.64581160708797   -0.61901597836129   -0.24059509548198
O          -0.76768168086956   -0.51035886544262    1.20957890421489
O           0.26348942517554    0.40695245757532   -0.76011740965622
O          -0.03885521041068   -2.00805939647470   -0.56628395653919
O          -1.94712429901152   -0.54359435625921   -0.89297495356785
O           0.66341706324503   -2.50717806954051    2.20720998382007
H           0.08673694856997   -1.74464944972540    1.99326153248651
H           0.46514540344736   -3.15995233410260    1.53069105703540
O           3.06969510924635   -1.46988793651806    1.67887772913169
H           2.20277154991949   -1.82114425956305    1.99083119071131
H           3.73453601481712   -2.09257247598295    1.97649882317832
O          -0.49844467276581    2.22594921473248   -2.50206152997610
H          -0.09778517698394    1.56947029654828   -1.88340076155682
H          -0.48982418869287    1.80943939403297   -3.36530487702293
O          -0.91630558149866    2.09190073649513    1.37010485851759
H          -0.03904092109518    2.33479106220668    1.06240472981241
H          -1.96315572518876    2.18431394711254    0.15098081449151
H          -0.87996634896185    1.11135823399094    1.47851835469447
O           2.36009925793398   -1.24323981566276   -0.88244320036897
H           0.94706679100254   -1.84279126958685   -0.74522410935652
H           1.95391840994293   -0.36418551598480   -0.93829365515633
H           2.75073547271304   -1.30102113196009    0.02070715815020
N          -2.47499278599635    1.96487539637821   -0.75267813314385
H          -1.88730757738532    2.31275187188017   -1.54525448894720
H          -3.42316976047413    2.32310365762718   -0.76669325815807
H          -2.42814590961625    0.89274458660578   -0.82833969732089
