    26
        -50.44824567  Gyration_radius:  2.63850619944 Dipole_moment: 4.533
 S          -0.35187828793794   -1.68626063347007   -0.19141296287958
O          -0.28486077211561   -0.83867536267010   -1.35396211750290
O          -1.35402992547826   -1.34468110617841    0.76742518091652
O           1.04972857179685   -1.69420390653106    0.48376445275680
O          -0.49211482599632   -3.14577581964222   -0.62091421510754
H           0.17204163901396   -3.23576897127501   -1.40749903722896
H           1.21889912903791   -0.82779335708623    0.97335972786103
O           1.37612238942905    0.48777139477135    1.79438506357925
H           1.93628598196351    0.34215066799519    2.55928562294733
O           1.13509597636673    2.75761772237685    0.13771670731361
H           0.44062731678458    3.19924868953018    0.63629052341977
H           1.37307670060530    1.97331637832570    0.65266498067848
O          -0.92217978865943    1.81474764510993   -1.42097153899618
H          -0.04934675121124    2.18419439563928   -1.19665357385000
H          -0.79173927510266    0.85415005200793   -1.47287202319964
O          -1.89213137458607    2.63012953633165    0.90019504160623
H          -1.61112490991123    2.31659538078826    0.00106522779502
H          -2.83700505607818    2.77523570853783    0.84642025838872
O          -1.05189404267701    0.68069390723621    2.52949980564245
H          -1.40565684380746    1.45088436554418    2.02854003883955
H          -1.36353743063407   -0.10285313207438    2.04459208330067
H           0.42543948781695    0.60922051796644    2.15330890575681
N           1.17341689844135   -2.92161499246551   -2.54019058125881
H           0.91695752931784   -1.93851459876434   -2.57778789546102
H           1.04389066736360   -3.34017214093536   -3.45159073559089
H           2.14591698625671   -2.99964233109714   -2.27465891973928
