    26
        -50.45974576  Gyration_radius:  2.48768470238 Dipole_moment: 3.660
 S           0.68687130862206   -0.07654893439328   -0.75933027003875
O           2.05666782454551    0.57989630706628   -0.38382717418321
O           0.59005120957039   -1.27760166360620    0.05853897857417
O          -0.34826155973333    0.89563631647522   -0.37122279933888
O           0.65639627363561   -0.32780064927694   -2.18196242806779
O          -1.89131274603118   -2.14923086093283    0.29632814834967
H          -0.91165004555349   -2.13027929715620    0.26753514939570
H          -2.14345954495891   -1.92260993972282   -0.62578206502469
O           1.76162072168619   -0.48727207624432    2.27950825373678
H           1.40910032165999   -0.91008294969647    1.46775353580339
H           2.31830423464779    0.22552050196416    1.95763390493008
O          -1.95743587849204   -0.91259205123699   -2.06787281428595
H          -1.00431287406815   -0.81161721157633   -2.25420934953683
H          -2.28720597823845   -0.01984560861844   -1.94152844416847
O          -0.55397359922287   -0.07981207880238    3.44108966596097
H          -0.71629048781250   -0.88165955242391    3.94205310372224
H           0.36706721403055   -0.16450036156829    3.07865879001294
O          -1.97925363338453    0.11903799201914    1.33482729832144
H          -1.31557623372004    0.53729441111776    0.63698714061390
H          -2.06885778361764   -0.88054464252873    0.97732918626106
H          -1.46188145721146    0.08116381264089    2.22132610018740
N           1.78917493489652    2.24705203584980   -2.35978410206714
H           1.09542796620103    2.95398128187309   -2.15447682798071
H           1.31469580562547    1.44983602063512   -2.77759133118837
H           2.44997974785214    2.62487688948799   -3.02626258520818
H           2.14411425907929    1.31770229866648   -1.05571905478243
