    26
        -50.45083930  Gyration_radius:  2.51699471258 Dipole_moment: 5.235
 S           0.85881841595207   -1.03036439090740    0.49708408381059
O           0.23595972764029   -0.06983326348084    1.37610555473015
O           2.13698730403615   -0.63718440586874   -0.00198544383794
O          -0.10973712147175   -1.28817178663857   -0.69971158345694
O           0.92927710034318   -2.40182090091139    1.13997879678394
H          -0.04346586162518   -2.75509543744260    1.20831653296817
H          -0.18974083303199   -0.42083944250349   -1.20366152074085
O          -0.24208061646879    1.00299523813091   -1.84701379767378
H           0.45878314357672    1.11125816793010   -2.49259627704663
O          -2.38763052605287   -0.70707071153999    1.41460570465419
H          -1.51283424060397   -0.31499650917201    1.57515162267632
H          -2.69747081401790   -0.32756828712269    0.57273862334948
O          -1.47858353571398   -3.10964461829539    1.10531979919249
H          -1.94442037849882   -2.24126955786581    1.30525021340648
H          -1.63289035151594   -3.28577107701395    0.17383452024371
O          -2.86979339572540    0.24357230835921   -1.13841528730052
H          -2.07965098546926    0.71844111283038   -1.42727917646710
H          -3.08356270161879   -0.38293896044720   -1.83135408652998
O           0.45049093637389    2.36493388457606    0.18993052968248
H           1.43303742073969    2.45216907676709    0.12487303787304
H          -0.01111435590231    1.63012887870886   -1.07411455602539
H           0.30768876497828    1.65592888519460    0.83876719071841
N           3.12872716893433    2.08673076445817    0.02923370540648
H           3.74809785010917    2.32602630977006   -0.73509660084451
H           2.98184088326777    1.07808805702967    0.00830699814898
H           3.61326698176668    2.30229668545590    0.89173140628478
