    26
        -50.45363476  Gyration_radius:  2.44719719474 Dipole_moment: 4.268
 S           0.92202101649683    0.87540436033558   -0.62509230587649
O           2.06041374098023    0.01360303457323   -0.55148339476680
O           0.31184671856702    1.15159490813158    0.65493794147618
O          -0.14413198072797    0.22987547605358   -1.55582699188917
O           1.24238221452232    2.16458972955537   -1.35509377750168
H           0.32849338958420    2.55761903854837   -1.66176484502520
H          -0.16114953879439   -0.75899290258867   -1.33068817102488
O           0.02133789434917   -2.16469158888564   -0.73665089107602
H           0.95887318559534   -2.33034305710229   -0.86348189262312
O          -1.06083733899787    2.85725504837511   -2.07212751951788
H          -1.27160501281862    2.21142188398844   -2.75182749078585
H          -1.60851807152597    2.59940354042060   -1.27380366160116
O          -2.20237166996914    1.90801959367764    0.06599059546999
H          -1.35049464732136    1.77967238791427    0.51441222637630
H          -2.57883835946572    1.01332053563150   -0.00019807403947
O          -2.60000537443735   -0.83782261447511    0.16424446062879
H          -2.09042409086313   -1.05543834216086    0.95346658918109
H          -2.29971903382519   -1.43667456046465   -0.52322058522909
O          -0.16203187385354   -1.27449918869333    1.70147849300919
H          -0.08936430890947   -1.95916377617667    0.23799885684917
H           0.73470519144151   -1.52400676554369    2.02272016958450
H          -0.07086498336922   -0.32616473056606    1.49048954710562
N           2.51635899441319   -1.50452510136179    1.92946869598473
H           2.56787185393698   -0.95735813641094    1.07080064233084
H           3.12996649458247   -2.30342784738699    1.82425466466861
H           2.89608561051768   -0.92867093549990    2.67099672844785
