    26
        -50.45329859  Gyration_radius:  2.50306450377 Dipole_moment: 5.762
 S           1.08896195060444   -1.05807218104524    0.38813722311671
O          -0.05563076385491   -0.72070860052100    1.22966546404466
O           2.29971439643027   -0.39012647863586    0.86372811557850
O           0.81225704348212   -0.69739677997615   -1.00955477304036
O           1.33695490525688   -2.57226531680190    0.45364421722097
H           0.68833017398042   -2.95529492419550   -0.21987077044034
H           0.92990241420762    0.78761831221092   -1.38032053183237
O           1.04518969796475    1.77418097767574   -1.55738058655419
H           1.55182248823684    1.83231447265356   -2.36928103370344
O          -0.32357952864180    1.78649435974912    1.80586091692244
H          -0.89417278258055    2.09913383333663    1.06920457733160
H          -0.31347258663575    0.79441537189236    1.72577720499161
O          -0.40107263233487   -3.09055425711909   -1.33378573128660
H          -0.12837452534890   -2.23330249301248   -1.69119992496604
H          -1.23028730215244   -2.90514578985236   -0.82189597761895
O          -1.38695700073337    2.59141754933978   -0.52573753787934
H          -1.53559339880515    3.51531449280549   -0.73354921792192
H          -0.62945588404291    2.29678792711096   -1.05882110611306
O           1.94305866126427    2.05383356055063    0.87575725902544
H           0.95264947473570    2.04592286859656    1.39019076888860
H           2.22069698206588    1.03441552237003    0.94962004363899
H           1.71667793572005    2.14802008291390   -0.09290806978037
N          -2.31976981100448   -2.18233498873964    0.30102664489900
H          -3.04763721897045   -1.55552530488925   -0.01824737496577
H          -1.59931962706535   -1.61501018133607    0.75089859283945
H          -2.72089306171632   -2.78413201508060    1.00904160761877
