    26
        -50.45129018  Gyration_radius:  2.6157727329 Dipole_moment: 4.156
 S           0.57255883550396    1.10403279638218   -0.74788207742457
O          -0.31402532583846    1.47861342671215    0.31326304596955
O           0.06045071808715    0.19256195227520   -1.73179219492749
O           1.84705510485655    0.47217091932222   -0.14138550206201
O           1.08615172864370    2.37200893111970   -1.44789520676788
H           1.57602499416643    2.02862341151043   -2.28654219410335
H           1.81601639457470    0.58040713611941    0.87781981429865
O          -0.07040972806721   -1.44748250495479    2.32846868445771
H           0.23296449410397   -2.26568179798789    2.72397595519868
O           1.41501649342618    0.75975786827815    2.33064190100627
H           0.73019592831178    1.42394408258383    2.18609133197482
H           0.92647942237481   -0.08670905850382    2.46574715788508
O          -3.27328942878533   -1.50917200921594    0.19263724785880
H          -3.04496046902144   -0.76079903544484    0.78987417660678
H          -3.85306370272441   -2.08517108744099    0.69283439113133
O          -2.25036645132179    0.30008304672494    1.89253974391555
H          -1.72798664542455    0.85993430217468    1.29872882999276
H          -1.60906865341831   -0.29499498651198    2.30585539106449
O          -0.62363359280502   -1.94445327217246   -0.16837042855990
H          -0.35427622562437   -1.25968166656109   -0.79995112675730
H          -0.22900533374385   -1.65051573111050    1.36015301140656
H          -1.60380891446214   -1.90745474473880   -0.16194235976743
N           2.12933616198766    1.11141916722688   -3.41413069283000
H           1.43981482438977    0.38517700814976   -3.23973045927451
H           3.05203182841983    0.73619343217649   -3.23955729023861
H           2.06979753235228    1.40718842386565   -4.37945112008357
