    26
        -50.45129020  Gyration_radius:  2.61572411651 Dipole_moment: 4.146
 S           0.00840196524045   -0.09104072414769   -1.44892148297744
O          -1.27688638906528   -0.24874148235929   -0.83615608056603
O           1.05594018803606   -0.96200771255171   -0.99579022027260
O           0.48871099173230    1.36502529779873   -1.24707983953206
O          -0.13921336855748   -0.22295326627172   -2.97287425597777
H           0.82702889986143   -0.26429219553593   -3.32766139386324
H          -0.27411225376150    1.90896212206746   -0.83060847903741
O          -0.65991610963865    1.44349595874865    2.23712681532529
H          -0.28767845513280    2.01295238878649    2.91172783363281
O          -1.51289437236708    2.39174836229027   -0.09792296073868
H          -1.24629500412909    2.17169044784642    0.82614435418537
H          -2.09929245540120    1.67431686817381   -0.36709978158006
O          -0.39503538986632   -2.37092630615087    2.69198115487092
H          -1.18758854995029   -1.93333545887477    2.30567763668972
H          -0.58257203411666   -2.49316961737152    3.62359414120073
O          -2.30617206176189   -0.78496529577711    1.67114240238156
H          -1.96099845191628    0.04263501388700    2.03468098544221
H          -2.07121721797674   -0.76447673219212    0.73134470431753
O           1.12310821613841   -0.37083949195057    1.67367573818451
H           0.05924486964276    0.78683559712783    2.00179712748867
H           0.72664095267525   -1.16795848210992    2.08523873740404
H           1.20800766085275   -0.59384912056099    0.73378142801447
N           2.37744692779427   -0.35287471014528   -3.41164622502586
H           2.46349484167851   -0.72838146723630   -2.47094012419241
H           2.85062752429494    0.53986924166704   -3.45264580657136
H           2.81121907614256   -0.98771921559697   -4.06856642812152
