    26
        -50.46926244  Gyration_radius:  2.54900582861 Dipole_moment: 4.563
 S          -0.33435879504704   -0.17615141343316   -0.41542202540010
O          -1.71049796808021   -0.00306376739770   -0.80656335879402
O           0.46672370265220   -0.93189476124273   -1.37006777151553
O           0.31621185407423    1.11812026361837   -0.12231546873950
O          -0.27053760574864   -1.00111541689428    0.90015518093298
O          -3.75440439724307   -0.93415799754829    0.61725450772987
H          -3.88776226196798   -1.85368143290955    0.38399776723780
H          -3.08392839723793   -0.58833608683585   -0.00853930820221
O           2.34037248380478    0.26466484455556   -2.82499643934680
H           1.91473954279933    0.90153696591880   -3.40111100768132
H           1.61728814504263   -0.27858046541978   -2.43989259713659
O           2.26599502683242   -1.91807908237767    0.29524109676621
H           1.60192531934546   -1.78091500114658   -0.41540344354056
H           1.73700833943625   -2.05751197046995    1.08624870885293
O          -1.86737911759461    2.24905158371307    0.91898243609862
H          -2.52140668383741    2.00839148706947    0.25625721554293
H          -1.01214814283454    1.98796138545935    0.53038501259452
O          -1.99739440842549    0.04048318076980    2.41027412473445
H          -1.98875592839667    0.96883239575639    2.08119980088400
H          -2.79939726985186   -0.35465020255144    2.01298891148613
H          -0.94550100854678   -0.59606346439267    1.56533227418315
N           2.82378969730319    0.60729132277368   -0.23149639571059
H           2.94530519325566    0.59153697712860   -1.27006913841404
H           2.83767694980165   -0.39537976301440    0.10146897712329
H           3.50097930062795    1.19715689553686    0.23875591863087
H           1.80545643984559    0.93455353331460   -0.09266496834383
