    26
        -50.47176461  Gyration_radius:  2.45074402717 Dipole_moment: 4.277
 S           0.77803868581977   -0.59397886244308   -1.14351248447602
O           0.16107153678456    0.45101894104349   -1.92452851879917
O          -0.15439152071264   -1.63334065894470   -0.74143260610947
O           1.46043760104389   -0.02386320244766    0.03755750196898
O           1.87480534492966   -1.30003621011879   -1.99840032725877
H           2.56574724814188   -0.61820517316348   -2.10188063816068
H           0.38463507891440    1.30717304551605    0.24466747368066
O          -0.26787810029725    2.01693966870636    0.38851159118057
H          -0.38311334333340    2.40537961662213   -0.48286269492494
O          -2.41117130576683   -0.17213027805228   -1.72868920002623
H          -1.51156413311546    0.16411143190706   -1.92144715509733
H          -2.30535465759624   -1.12635515943140   -1.71334122716487
O           3.51418943105807    0.71039325609854   -1.45507348924403
H           4.35749631680890    0.49711508074931   -1.04915247996526
H           2.84113822786650    0.66185541375587   -0.75004338084859
O           0.83284340896866    0.00485702314347    2.63718249628553
H           0.61519221410935    0.93605776536399    2.73521144697423
H           1.24176765687776   -0.06985047551225    1.75140452355287
O          -2.63872441466407    0.75442156496455    0.76021598590899
H          -1.88718310019718    1.38180336990303    0.73200061896268
H          -2.76108264445730    0.48119520509767   -0.17902507484795
H          -1.96032775701387   -0.47199990635567    1.35622618262359
N          -1.27430086655135   -1.27437386025542    1.60559959511038
H          -1.73579708831581   -2.06300012457061    2.04369686112941
H          -0.51296994370996   -0.87634876887478    2.20757541136114
H          -0.82350386559225   -1.54883871271242    0.68953959818737
