    26
        -50.47176457  Gyration_radius:  2.45077435327 Dipole_moment: 4.276
 S           1.44663709339275    0.22780279205869   -0.34653309139602
O           0.95677540683953    0.37339462959111   -1.69622404085585
O           1.38570790491814   -1.14033967749213    0.13909793303809
O           0.72303288080014    1.13623246063585    0.56822827380884
O           2.94940786226374    0.64178985140632   -0.29440058772990
H           2.93260638624602    1.60414312640904   -0.45756133553647
H          -0.76933294882708    1.11276645504186   -0.29510794929264
O          -1.62428584758845    1.03864445857476   -0.75736312234106
H          -1.39985622365340    1.17276161725748   -1.68210927623150
O          -1.17109236207005    0.70156517046897    2.40550579337813
H          -0.38774547716871    0.96284781381498    1.88054676064825
H          -1.91929300085381    1.10727152700219    1.95867104358727
O          -0.06002275063761   -2.03200935991015   -2.16766401826542
H           0.29689193268484   -1.11980486332864   -2.15856711651248
H           0.57877191979278   -2.53760407238602   -1.65941429563013
O           2.19066793661701    3.18050798625485   -0.23940573864427
H           2.50281808464258    3.71869539836040    0.49155707984666
H           1.46021882097601    2.63259054284675    0.10508711373249
O          -2.24724591778201   -1.59969972693345   -0.70705990926192
H          -2.24504363909093   -0.62173408303399   -0.76061710115956
H          -1.57344771180208   -1.87972435060888   -1.36993568536271
H          -1.50262852928717   -1.81206490443893    0.60404061599925
N          -0.80967163721132   -1.76271055445339    1.43726803969502
H          -1.03858446934060   -0.90815894416912    2.00091930513469
H           0.13773711072293   -1.59220475936259    1.00035639250600
H          -0.81302282457949   -2.60495853359277    2.00068492684214
