    26
        -50.47064472  Gyration_radius:  2.48563535303 Dipole_moment: 4.197
 S           0.98797786440531    0.74811496103564    0.13211802219425
O           1.74819475529130   -0.24966127392357   -0.60870121300718
O           0.38245736390198    0.14098169214898    1.32046473617038
O          -0.03193156379180    1.37852189980560   -0.70308336480982
O           1.98134084253308    1.83475525363106    0.59603759440045
H           1.39609780496423    2.63354491731952    0.74563656824167
H          -1.11105200879454    0.30438805255405   -1.16497973714124
O          -1.74867507653625   -0.40297902183891   -1.45184468134042
H          -2.52128825305967    0.05798030123085   -1.78291380359813
O          -0.89908117015353    1.98312789718969    2.71127022581539
H          -0.47413185808716    1.23952822026694    2.22912469612426
H          -0.56455519908860    1.94444568305527    3.60853697434066
O          -1.24569817938245   -1.87992892146625    0.81374080183140
H          -0.72983407059767   -1.13474319363151    1.19309910807735
H          -1.71229935124296   -1.48225484347367    0.05895413167983
O           0.12202436610041    3.58515661496914    0.81861230191189
H          -0.35511447721344    3.22950715206915    1.59756598847854
H          -0.24885270228265    3.11028690760592    0.05953236314900
O           0.29699269239733   -1.63817077566202   -2.79252012972771
H           0.62585196108006   -2.65734015227503   -1.46592820072747
H          -0.55534511083762   -1.25586574111750   -2.51410160810678
H           0.95360286148397   -0.96885973388997   -2.56209232855314
N           0.88099192156160   -2.68647200372454   -0.44827397660393
H          -0.01463325826165   -2.56901784663640    0.12962269890290
H           1.40433004278359   -1.76948969677539   -0.33082797616742
H           1.43262976389344   -3.49555632913237   -0.18904917177831
