    26
        -50.45514527  Gyration_radius:  2.4583200159 Dipole_moment: 1.642
 S          -0.37426888624229    1.04188254018055    0.99937324786922
O           0.01257162325233    1.31816781882281   -0.37072436631281
O           0.60142764702691    1.44304822171820    1.96923874050325
O          -0.64381733442429   -0.47185147981923    1.12860608688202
O          -1.71735455621982    1.66210955147037    1.29129214250042
H          -2.28760258059817    1.50992845545463    0.41080760701990
H           0.22658544222781   -1.00700994509692    0.96542491177841
O           1.56346295927109   -1.61357121373384    0.71192699634921
H           2.13392277269020   -1.29371757382300    1.42946860703224
O           3.01020489349016    0.33138392560579    1.99045408681756
H           3.50533198036422    0.58354724253634    2.77108527909945
H           2.15911974813911    0.81457867283162    2.04066501541219
O          -2.85298780618588    1.21566507621857   -0.86624962084657
H          -2.86698520258632    0.19522831146790   -0.91926732126868
H          -2.16893287015280    1.49797664410890   -1.48134417180619
O          -0.13124801753314   -0.65295557318984   -2.26404556856919
H          -0.11515588520729    0.09090269993199   -1.64030689765979
H           0.78625040594548   -0.81552201295150   -2.49332828151079
O           2.48628770016249    0.31172207502933   -0.86253843731929
H           1.69099771628444    0.86507365351684   -0.77140560709197
H           3.07444259803964    0.57220837241243   -0.14419368571390
H           1.89807112789404   -1.12125782430401   -0.07451575459463
N          -2.60420794251141   -1.37452755448457   -0.95744363082368
H          -3.30501099315047   -2.04705582080582   -1.23856550153608
H          -2.26921501342476   -1.61452370577612   -0.03205579857423
H          -1.81188954668596   -1.44143054738534   -1.59235809762997
