    26
        -50.47176456  Gyration_radius:  2.4508174175 Dipole_moment: 4.281
 S          -0.10296536913621    1.27388568721391    0.79474322781451
O           1.21422872570041    0.74291110773123    1.10223196639294
O          -1.16696393708268    0.59079583522432    1.49050836203707
O          -0.34243196129677    1.25547575497892   -0.66393826685545
O          -0.08025143453406    2.77210263979735    1.22728799139336
H          -0.90298149512217    3.13760485928931    0.84966675901305
H          -1.17053590803227   -0.25681544921836   -0.69184496338471
O          -1.57865977617735   -1.14196126731944   -0.70297764961820
H          -2.22321583786686   -1.10849860552835    0.00899434926974
O           0.12835742635431   -1.44563237916147    2.59442694332088
H           0.95548937462202   -0.98755686693034    2.76195462141572
H          -0.47720698064049   -0.73925876556008    2.28833067406969
O          -2.08387936945528    3.23107551877242   -0.44560520646046
H          -1.60280940259741    2.43848942234501   -0.75041587073306
H          -1.95500513330775    3.90811757705217   -1.11377474386136
O           0.76713504152203   -0.14800107081319   -2.65228058674499
H           0.39625682281709    0.52376723848149   -2.04527569997655
H           0.03119287706665   -0.72967942037975   -2.86235183754773
O           0.29747834160021   -2.81520370749422    0.31399982617733
H           0.21963203774993   -2.50719062684357    1.24723906762267
H          -0.46591750263569   -2.40244480099006   -0.13995400031413
H           1.43663773924991   -1.94861537775436   -0.20690725112994
N           2.06580730795465   -1.12696610954639   -0.53179748587661
H           1.73944095920479   -0.82297370602959   -1.48128282338308
H           3.05179650194091   -1.36059098867852   -0.52271444040877
H           1.84937096209413   -0.33283646863562    0.13173705775846
