    26
        -50.46970781  Gyration_radius:  2.55332280561 Dipole_moment: 5.551
 S           0.83904923250322    0.43501367826236   -0.59744484525711
O           1.33150735596076    0.80618575562753    0.72725611247188
O          -0.62280392893629    0.41520214878331   -0.63916703260284
O           1.33751073517656    1.52433854735980   -1.57641229256208
O           1.37766667220621   -0.85767994974100   -1.01508906379901
O          -0.99389335016781    2.12212739991997    1.34442088604671
H          -1.11480337321435    1.55220705922007    0.55923675497171
H          -0.03298928998627    2.19419706898852    1.40359365001071
O           0.72529432992283   -1.31252705493710   -3.54568382451361
H           1.53175309951985   -1.42402769319760   -4.05165224946614
H           1.00037735872121   -1.23937325223106   -2.60646395450006
O          -0.48213134951917   -2.24905315864337    0.23505312331444
H          -1.22150095155523   -1.72065578933164   -0.08459246910326
H           0.27834282578280   -1.93264246049089   -0.30053353337139
O          -1.58149601475263    0.55717536806806    3.38028661499599
H          -1.59185996802366    1.09190616420343    4.17528986381234
H          -1.50284178195943    1.19255554763035    2.61958449500756
O          -0.51307030160220    1.05166032027472   -3.28188207697244
H           0.69894806592708    1.49042583952751   -2.35290623696266
H          -0.18125923855305    0.19075404619512   -3.61418239207767
H          -1.04324884310232    0.83655216897444   -2.50083649222077
N           0.35988221677899   -0.96074691950160    2.37607309538251
H           0.86586230788655   -0.22565316822017    1.79287416439567
H          -0.41121847922918   -0.47340980335551    2.90095668333589
H          -0.05132706367201   -1.62135856932114    1.65306858855130
H           0.99824975388437   -1.44317327407007    2.99915243111678
