    26
        -50.46217245  Gyration_radius:  2.39209688819 Dipole_moment: 8.540
 S          -0.18517715452712   -1.47115305545667   -1.04810520114171
O          -0.99378034006188   -1.20349260866108    0.13720297462115
O           0.78642377702655   -2.61991664169098   -0.73284484542311
O           0.63923165292990   -0.27491476968178   -1.36786406561648
O          -1.00527910748300   -1.81036096056622   -2.19291036043841
H          -1.64871217304356   -0.31951248266654   -2.51571531170745
H           1.58369843223938    0.42625807903114   -0.34044100032374
O           2.16293041956342    0.89225732803138    0.32650886040613
H           2.87055380621870    1.30008338510881   -0.17447248135173
O          -0.15662381021410   -0.71553806825954    2.61821510685363
H          -0.15499140347491    0.24592647350931    2.51916345911070
H          -0.62772373366422   -1.03531322574087    1.82710905262341
O          -2.19325859610878    1.12300710988063    0.05611256121326
H          -1.55180840177837    1.63467207187985    0.57378672681300
H          -1.91641197535038    0.18894323100948    0.20816405410914
O           0.01187551548694    1.99032342427829    1.57381244236083
H           0.29893045404682    2.67657262958824    2.17773168758979
H           0.81589916134494    1.63947834582531    1.13997888892064
O           1.98514464929567   -1.70154246555501    1.34762210064729
H           1.26118494852365   -1.48763239086666    1.98104302035697
H           1.29766521255987   -2.34542805618004    0.09965974361897
H           2.32363184707720   -0.83603124906929    1.07187597738175
N          -1.48142157226094    0.71826197909047   -2.40230376532003
H          -0.45133752530308    0.67914131728954   -2.20188201515003
H          -1.92602531232150    1.03443080551542   -1.47071802110533
H          -1.74461878071818    1.27147981435211   -3.21072955905201
