    26
        -50.45087247  Gyration_radius:  2.57947324464 Dipole_moment: 5.671
 S           1.79364992203942   -0.50046459269368    0.32668327927735
O           1.86398795784722   -0.12566372477568    1.71801454669197
O           1.37725457633210    0.63787077215130   -0.52264871262938
O           0.89004497652659   -1.62786410557610    0.09167941311859
O           3.21331961239694   -0.91493098573263   -0.14195496181288
H           3.06020425248755   -1.17015955060467   -1.08963724155596
H          -0.45691156304871   -1.42782729875568    0.85127829613802
O          -1.30980711343480   -1.29199037848518    1.36014688640024
H          -1.44605534696601   -2.10981299342348    1.84213597062906
O           0.01630158465682    2.37180400009004    0.57177680031985
H          -0.82546466228700    2.36235183635728   -0.00114203547079
H           0.68332390139719    1.67837205945356    0.09079296474693
O          -2.02526200967280    2.13421994495388   -0.96819697245812
H          -1.70534350268829    2.07583311146995   -1.87016370881826
H          -2.44700069880155    1.26289077178580   -0.76760711659187
O          -3.07018381671668   -0.22879778580512   -0.37628872764274
H          -3.89087986441283   -0.17872311114366    0.11688121143797
H          -2.42120764590127   -0.67566926344756    0.20705088845748
O          -0.34908328387402    0.93808128307862    2.60071602026913
H          -0.90290580819724    0.19658765063912    2.29315537343305
H           0.56662179946093    0.58015081441349    2.52980055432537
H          -0.20432994112800    1.89321445279412    1.47935115754480
N           2.12791231022477   -1.46208035381913   -2.45560088881932
H           1.85865277922404   -0.53965855972996   -2.77283182266604
H           1.38339176791224   -1.80589883128225   -1.85544280071593
H           2.21976979662013   -2.07183513192294   -3.25794836358272
