    26
        -50.45087242  Gyration_radius:  2.57927585988 Dipole_moment: 5.667
 S          -0.45394924636461   -1.76134785435400    0.51412808846659
O          -1.33064503770328   -0.85701108495091   -0.26310426837292
O          -0.58496154903115   -1.53593222885522    1.93304311334305
O           0.92442833845443   -1.61127642313869    0.04468278697293
O          -0.91409048975148   -3.20992197956363    0.20303889658275
H          -0.77066532833359   -3.27460955436538   -0.77775821085821
H           1.57211724733435   -0.31995424371742    0.63121160552794
O           1.97896143596920    0.50440087324462    1.03096196949350
H           2.81348709206970    0.21522961035209    1.40462066564210
O           1.72003851286307    2.44993353227942   -0.81077622573830
H           1.85267003743672    1.70007378922415   -0.19332119003795
H           2.18104483893812    3.20023859864200   -0.43157295644492
O          -1.91302800789367    1.28085441770363    0.80782895045393
H          -1.75048675382746    0.31941808949764    0.35372881806241
H          -1.56067982593584    1.95186834968386    0.12773350798969
O          -0.90174541408460    2.78435888592212   -1.01218661890677
H          -1.16029902592512    2.42594960623082   -1.86307644854851
H           0.08103205896061    2.69099835801743   -0.96012034689146
O          -0.19708979398829    0.95349867187887    2.61169868110454
H           0.66423204622469    1.00899692032951    2.15765378622551
H          -1.25272334933077    1.26913849867099    1.62353868627535
H          -0.38045522509122   -0.01486905004912    2.62960509230290
N          -0.25946677086703   -2.72525745860161   -2.28032521469083
H           0.50961959092574   -2.24167108914983   -1.82492207623301
H          -0.94636114669667   -2.02728817484254   -2.53549030385264
H           0.07901576565178   -3.17581908007942   -3.12082077786546
