    26
        -50.46455199  Gyration_radius:  2.42073242566 Dipole_moment: 4.946
 S           1.08543852083300    0.31663129138187   -0.68923175517934
O           1.78372071776697   -0.30816852645136    0.42300085353762
O           0.65518440078237    1.67671710734459   -0.38367276295028
O          -0.06369635068620   -0.50634398388806   -1.09240639351048
O           2.03701311331042    0.41443532679726   -1.90420946941643
H           2.36516146767018   -0.52489846298747   -1.99782965794978
H          -0.99437344239014   -1.04886932302574    0.10361724964434
O          -1.58550899836098   -1.29952377460125    0.86145250643501
H          -2.01529104093510   -2.11697235026122    0.60634134255278
O          -0.55765988989885    2.02455461120597    1.79173591534393
H          -1.54192496119200    1.76609267157028    1.45426899953198
H          -0.00314494190180    2.02583843476054    0.92714181672098
O          -1.82589957714758    1.42356047414653   -1.65121660733262
H          -1.23510504064270    0.64590847873707   -1.59651125588500
H          -1.22720251117976    2.17595058310234   -1.65686816323956
O          -2.70125558077931    1.18509333811128    0.82940374723788
H          -2.55491984359633    1.35815204483123   -0.13648286077888
H          -2.53749854453843    0.22877785492779    0.93709559734186
O           0.27900268026924   -0.21406816425568    2.56950735547291
H          -0.20960713319636    1.16763193495806    2.28324243429916
H          -0.43558743946315   -0.79096381838740    2.25371878582442
H           0.98497997606952   -0.29270629782289    1.88420514463226
N           2.58731222637935   -2.10915376441291   -1.59928585938262
H           2.46537400602435   -1.87347389716666   -0.61787057123335
H           3.43988943176306   -2.64246791913688   -1.71026563720736
H           1.80559876498970   -2.68173388910330   -1.88888075442440
