    26
        -50.47136212  Gyration_radius:  2.44307250645 Dipole_moment: 2.084
 S           0.58059108246002   -0.47347178274790    1.93571727054126
O          -0.57320608925736   -1.33489111863848    1.67424879386774
O           0.26121259483977    0.92519045392997    1.87138939144757
O           1.71061207170549   -0.85469674607207    1.09664653628026
O           1.01750156156832   -0.78674762866746    3.42448040934433
H           1.16445450876163   -1.72477874293481    3.37628090391461
H           1.99422410661688    0.12189259633699   -0.14901190897664
O           2.16550930314366    0.68366683065471   -0.94988778731824
H           3.11851387313557    0.73118498816229   -1.03769714754561
O           0.18154107550476   -2.43684371757079   -0.60985255131323
H          -0.21172451519293   -2.10243697954215    0.22211411027813
H           1.12612360776264   -2.43157065517989   -0.42826561573036
O           0.38250462047492    2.61687571203628   -0.14736678331509
H           1.13715851956088    2.16262914032177   -0.56017534078526
H           0.31662567860751    2.19126450442041    0.73234278393711
O          -2.70307770650466   -0.21305651376711    0.65184711168854
H          -3.19107932013146   -1.00058824749400    0.40237456775615
H          -1.91472664926913   -0.54125935241737    1.14559401580380
O           0.10513971661169   -0.44659200159357   -2.38805674157605
H           0.04061718326004   -1.27090746077338   -1.85208180077437
H          -0.97032063790724    0.54605562591318   -1.82622173405338
H           0.93279879020515   -0.02969663199448   -2.09240053317270
N          -1.55353996851012    1.25316243624314   -1.27611286788324
H          -0.85092455072182    1.91969892085212   -0.81910429862736
H          -2.07012128910343    0.74049820450291   -0.51939357419136
H          -2.19640756765625    1.75541815605257   -1.87740718940788
