    26
        -50.46185051  Gyration_radius:  2.40094189307 Dipole_moment: 4.292
 S           0.53470164710538    1.07478018019706   -1.36925030037154
O           1.76091237755539    0.73421006261001   -0.66010320237991
O          -0.29923718306657    1.99250116436462   -0.63325187736500
O          -0.17425209341772   -0.13312929001713   -1.78417162374233
O           0.96457361510814    1.80471105415438   -2.69996533605108
H           1.44639162975244    1.11800518691930   -3.14738412318193
H          -0.17676712402918   -1.28544991226014   -0.57494914690010
O          -0.19995008255080   -1.84660978036333    0.23206069460607
H           0.75778026312710   -1.97902400457294    0.47120453262917
O           0.98092569679564    1.41533513351825    1.74499895595064
H           0.56555699053233    2.26571577341426    1.57244740771339
H           1.37844474722308    1.16132846272698    0.87930533220918
O          -2.77188327737485   -0.70124787348168   -1.40594373931222
H          -1.87887154350747   -0.46864274824279   -1.72587855694995
H          -2.71372779704989   -1.61202186911571   -1.10811457380582
O          -2.51128676107496    1.12124163007615    0.50893306004545
H          -1.80095913316304    1.62129823657810    0.04935666057144
H          -2.84514274566101    0.48954387885748   -0.16986637222265
O          -0.98539149158546   -0.21522877209356    1.94885303615260
H          -0.17985425956586    0.41063144646711    2.00078921309400
H          -1.73108128243510    0.34858145690366    1.41947203766367
H          -0.69364086832563   -0.98599919665717    1.27400303503721
N           2.39532564568304   -1.69865100950579    0.78059909514885
H           3.10420340268609   -2.33482773912591    0.43946534325434
H           2.63188273045028   -1.45069604676297    1.73320357799316
H           2.44134687678649   -0.84635544459289    0.22418689020127
