    26
        -50.46048025  Gyration_radius:  2.52200296282 Dipole_moment: 3.411
 S           0.68714186094432    0.25545468031647    1.42204242579642
O           0.19754820886732    1.56072803258723    1.02863135564372
O           1.83501502802705   -0.14638365278291    0.60548245276248
O          -0.34864082892706   -0.77463267564817    1.39192156520890
O           1.17687374682952    0.38457774969078    2.90059096337058
H           1.21535508228520   -0.53253282312690    3.24255497804523
H          -0.21198041545087   -1.30198755583094   -0.14568560760511
O          -0.09836067807086   -1.61004053564069   -1.07550598299155
H           0.74061643383349   -2.07498024850933   -1.07837490170311
O           0.67190640483768   -2.17712063590888    3.36172410458765
H           0.02786840829010   -2.34415669139020    4.05359124586230
H           0.16324325965843   -1.90909586814174    2.56941519917864
O          -2.88446213849302   -0.96410896283381   -1.20659947015454
H          -2.03659663490074   -1.41553860022364   -1.10550476631057
H          -3.09481011874916   -0.98143163788479   -2.14243198358151
O          -1.81957022582695    1.55730120485464   -0.81534461527547
H          -2.36561898689468    0.75680475414997   -0.72107042574407
H          -1.24027825622831    1.59092506282491   -0.03424399409562
O          -0.09866360750752    0.66820659115478   -2.57370776859872
H           1.03670510305155    1.35283405208391   -1.86315874093174
H          -0.07467229443862   -0.23828729111152   -2.20772324124416
H          -0.84417101029096    1.10023128394953   -2.07403153838616
N           1.71782329986970    1.75193967339088   -1.10696035859228
H           1.99783734681855    0.92137195058869   -0.49400138407829
H           1.14762571349241    2.29896119549792   -0.44701455194086
H           2.50226529897420    2.27096093796405   -1.48459494921904
