    26
        -50.46582105  Gyration_radius:  2.52381324163 Dipole_moment: 1.964
 S           1.99818554224123    0.81981055689915   -0.17808153704975
O           1.09328951335514    1.95850875816440   -0.14341250534115
O           1.44766825367996   -0.26706256019804   -0.97816043027224
O           2.46707518632434    0.39867258756904    1.12285765504005
O           3.29728079243659    1.31679490116135   -0.95051650199240
H           3.99438595878248    1.12593817355026   -0.33164897985588
H           1.33805871000016   -0.32754290687695    2.05647415763961
O           0.58684845935032   -0.74438981449480    2.54256376274442
H           0.88034033568138   -0.85670092258635    3.44801847731225
O           0.19914764679908   -2.31260585108290    0.29083272364155
H           0.23529046667026   -1.95422496090597    1.19088126059107
H           0.73426845958023   -1.69911939234438   -0.24168540702951
O          -2.27829612678435   -2.10756694410979   -0.63186979323813
H          -1.34388927091431   -2.23474993622487   -0.33247626912779
H          -2.80997853244714   -2.70410129305225   -0.10420777449156
O          -2.59500934382059    0.52651625020987   -0.66701644441684
H          -1.47416607624206    0.86223371605989   -1.53286737545025
H          -2.60254798921246   -0.45908819874343   -0.66430927674836
O          -1.03596703886758    1.18154716670246    1.39129493296192
H          -0.28292772741016    1.60665137735710    0.94875788525815
H          -2.20103381519445    0.79201338972946    0.19656691280916
H          -0.65339182358394    0.46161167754923    1.91655231596279
N          -0.50526714321644    1.10555760646388   -2.02161050466785
H           0.14646996828780    0.30022510079834   -1.90393949126760
H          -0.02928412623482    1.82070082854380   -1.43396941508114
H          -0.60655029925956    1.39037070985994   -2.98902837792992
