    26
        -50.46582108  Gyration_radius:  2.52382569588 Dipole_moment: 1.964
 S          -0.88970291121325    1.44236754735949   -1.35082537453929
O          -1.43681110510476    0.13236982723278   -1.02054265941347
O           0.51339518837956    1.34800895286646   -1.72377605693715
O          -1.16909785659932    2.45231466970957   -0.35500358980643
O          -1.65889728116301    1.92032051512846   -2.65896843334695
H          -2.11616495756528    2.69931435746738   -2.35987775993403
H          -0.63145814576998    2.09980947620519    1.14844093052844
O          -0.26345512859100    1.79951389897115    2.01374448721515
H          -0.31313719814641    2.55275020655754    2.60428857570051
O           1.99403700720765   -1.86103966175868    0.13096622010966
H           1.33943528005915   -2.24896359536723    0.75745933546764
H           1.21760533336514   -1.62012172201612   -1.07649791670150
O          -1.61510127924397   -0.58238680339477    1.58924115482618
H          -1.17195397983685    0.19085029495515    1.97073944763006
H          -1.71223110818744   -0.37115141748855    0.64465553399428
O           0.01664772185668   -2.66934356737646    1.70466279943250
H          -0.64454534538808   -1.93471570323798    1.65903622750838
H           0.12151099280483   -2.87522075072888    2.63393264517415
O           1.86704649406513    0.76134251247939    0.58182621376487
H           1.25084150149972    1.07436985894147    1.26217369577166
H           2.11606449655719   -0.92623563527636    0.41859534167029
H           1.51445515433888    1.09554375454830   -0.25936628326747
N           0.58087663957874   -1.25404460142663   -1.91158569630611
H          -0.38368345950550   -1.08370897204034   -1.55419987520757
H           0.59736765418112   -1.86222690428734   -2.72218960844902
H           0.87695627242044   -0.27971653802146   -2.12692933488588
