    26
        -50.46942315  Gyration_radius:  2.44393832898 Dipole_moment: 5.033
 S           0.64689060530819    0.52094408837410   -0.82293883666641
O          -0.25440883348863    1.37615320021378   -0.05588491288516
O           0.43844872353043   -0.89487409213057   -0.48319939695509
O           0.30939588655910    0.69209572326818   -2.31631753626861
O           2.03752962498404    0.87959014087644   -0.60076465354243
O          -1.99880212547933   -1.36897233676951    0.25836499309459
H          -2.19476610959215   -2.29042416456070    0.08033532009390
H          -1.05778671545173   -1.23063009572410   -0.00392402329220
O           2.28921094628304   -2.45207477287177    0.55542123725235
H           1.54444637125842   -2.00857874293065    0.08706674665078
H           2.97300076860567   -2.57842963834665   -0.10477187050071
O          -0.43850837506081    0.18112462307322    2.25467868991357
H          -0.49064735024417    0.77535315454404    1.47150095614847
H          -1.05245427046757   -0.53128776486688    2.03965414401229
O          -2.29666466581214    2.66546379381445   -1.20451446652552
H          -1.56969087721479    2.30290120616396   -0.65962688176098
H          -1.89949763549298    3.33074616251541   -1.76879745703873
O          -2.18240209590458    0.13310603735234   -2.10579314067446
H          -2.28861614018635   -0.37593228222814   -1.28117932673961
H          -2.47976177909915    1.04021123311159   -1.88443078576100
H          -0.67039819107032    0.43163496916359   -2.35725126241810
N           2.14988792007383   -0.11326403065990    1.81249102034866
H           2.77970716848963    0.26484220491268    2.51230946395944
H           2.36351495068932   -1.11021743728589    1.56719591575262
H           1.13088578941913   -0.05324103886705    2.12294692383880
H           2.21148643934950    0.41375987985216    0.88742912995976
