    26
        -50.45050192  Gyration_radius:  2.59563240229 Dipole_moment: 4.873
 S           0.14419480492457    1.32752190113617   -0.35554629112777
O           1.15162279566363    0.30186823837446   -0.49844895049670
O           0.08944384093762    1.93267107234329    0.93638651130934
O          -1.22907049752550    0.70572201709221   -0.71813672398208
O           0.31913722718667    2.39399948782234   -1.42428468369422
H           0.26451244689061    1.95870505032987   -2.35044918293712
H          -1.52179337961928    0.08121811339161    0.02193401154764
O          -1.88666649991159   -0.83624066673358    1.20585206042609
H          -2.83452209309741   -0.96322190921084    1.28008159372739
O           1.25133454315858   -0.52818786326996    3.50300777890325
H           1.17093237712810   -1.13386794735429    2.73392214983612
H           1.95723464551042    0.08332777031291    3.28631148583144
O           0.77966178454629   -1.80197921369079    1.17316089783022
H           1.04564934029168   -1.08562259340074    0.57097708362075
H          -0.18536807896989   -1.79564686415860    1.18122065754125
O           0.29100535932479    1.24638093381439   -3.68194199889860
H           1.14770297009634    1.40098872487480   -4.08648177263739
H           0.25767603342173    0.27086678738801   -3.43711821869324
O          -1.07609656607071    0.71543355697583    3.05380837061421
H          -0.70967079706320    1.38994212585792    2.45715828278481
H          -1.61525856446935   -0.25805642073625    2.00737994255369
H          -0.28646100045110    0.25999009990884    3.42679581153510
N           0.35164158756398   -1.21698107618639   -2.75523291462550
H           0.92628975235010   -1.97228758256389   -3.10676888411903
H          -0.56298144273727   -1.59306367176246   -2.54109638173179
H           0.75984941089747   -0.88348009056174   -1.88249061512883
