    26
        -50.46679022  Gyration_radius:  2.45334227847 Dipole_moment: 3.987
 S          -0.55794235358175    0.47000544219131   -1.23417031777056
O          -0.38790637592980   -0.95034816540980   -1.43405718024422
O           0.72965340887587    1.16236030020483   -1.22233322238490
O          -1.31620573249713    0.78666068849483   -0.01680760855963
O          -1.38367122632104    1.00927597945632   -2.44161511732592
H          -1.66474881349919    1.90680620387593   -2.17050445500112
H          -0.00064118382489    0.95235416000836    1.06303470266913
O           0.78756627123746    1.01858000339652    1.63522914790189
H           1.32911724028047    1.69546561021845    1.22347949018994
O          -0.22090509709524   -2.56531778663530    0.75722089757123
H          -0.88011644493287   -2.17624117917739    1.36331234701366
H          -0.38554288726235   -2.12734260749324   -0.09585544323606
O          -1.79804420477279   -0.83055014871438    2.13977913660238
H          -1.81624184413998   -0.26887594735495    1.34701887701030
H          -1.23859498255254   -0.37082454992271    2.77074159996490
O          -2.17982202782596    3.07809152881035   -0.99736905417271
H          -3.12788600152222    3.19061886899750   -0.89655583728537
H          -1.91388912696450    2.37281812435784   -0.37652181588792
O           2.02554671861599   -1.36849480675899    1.34758376068287
H           1.23097554477512   -1.96436395112174    1.25778333460014
H           2.29789024172622   -1.14343992411250   -0.07152082598527
H           1.65582248239037   -0.50965830387636    1.64228440425544
N           2.26532688779521   -0.91204033535562   -1.15743931527782
H           1.80499918446282    0.04599050076228   -1.23781093402893
H           1.57602363945008   -1.53897622840241   -1.58061617474262
H           3.16923668310137   -0.96255346645765   -1.61429041652537
