    26
        -50.45127731  Gyration_radius:  2.48019419563 Dipole_moment: 5.947
 S           0.48890761790073    0.89205976562668   -1.55304962323128
O           0.16169155443878    1.26073263528553   -0.19719622327988
O          -0.46605833839724    1.28993331612179   -2.53467105473455
O           0.70080730380095   -0.65613782635147   -1.58709724358593
O           1.88374986927321    1.38023861517447   -1.90308501366296
H           2.54535791131802    0.90915564071406   -1.19601465382552
H          -0.13612323120148   -1.13337771528891   -1.29704461140593
O          -1.39492693093585   -1.86475195671573   -0.72762371837080
H          -1.37396237490291   -2.81099863106197   -0.88110885585447
O           1.28626490625664    0.11781822419633    1.82921458546757
H           1.16332509157375    0.68360818606602    2.59438206559717
H           0.81239537197856    0.57678597909146    1.08896733119704
O          -2.45115771136825    0.83952805370423    1.70091082097522
H          -3.38439120031920    0.87327380274539    1.91740524647220
H          -2.40308805219562    0.95104644452775    0.72602509029837
O          -2.65677499978189    0.66884398184662   -0.98982274724167
H          -2.00525342964528    1.08472752479831   -1.57322722114439
H          -2.49323565148306   -0.28006645495903   -1.05494200003992
O          -1.02560670517699   -1.41757439221041    1.77383553108816
H          -0.11934653636707   -1.07525697875574    1.85836701013633
H          -1.59603901945590   -0.62071072359068    1.87315007684658
H          -1.27503358941206   -1.73347378014654    0.27252204619306
N           3.31746267232313    0.16296864152059   -0.20907410205234
H           2.74692227095764    0.08758351948842    0.63511598196669
H           4.21073808897733    0.57842134358532    0.01908160454043
H           3.46337511172422   -0.76437723534558   -0.58502033240630
