    26
        -50.45127726  Gyration_radius:  2.48016846696 Dipole_moment: 5.939
 S           1.57775097898595    0.36552535888533   -0.90958470087146
O           2.76472727599031    0.78296818310680   -0.23830532568638
O           0.38537034228244    1.09553234776159   -0.55394802272508
O           1.30270154698217   -1.15083185013132   -0.64941552917255
O           1.76024287387148    0.36948495326702   -2.41737231400467
H           0.87804128334654   -0.09693775170035   -2.82042734259261
H           1.08179301984394   -1.30857853541359    0.31942019899397
O           0.61982940193549   -1.52982605706403    1.79637500749938
H           0.59944517684781   -2.45620711035932    2.04293260687099
O           1.53671424520903    1.13022573388594    2.20035240360800
H           2.06253291088992    1.21702489386931    1.39185093463220
H           1.40527843903834    0.18195197884254    2.32250606217096
O          -1.97551602309228    0.16386963944920   -1.04219536537993
H          -1.09514761402260    0.56008055017765   -0.81667412935549
H          -2.59600172229418    0.89490620089914   -1.00580186929675
O          -1.07697637703350    1.82061716065295    2.26394660706926
H          -1.11912015711782    2.15132453867925    3.16270957849685
H          -0.12097643823705    1.69999934423612    2.07249926956632
O          -1.79021568805320   -0.66559360784745    1.60009126002517
H          -1.96935751782852   -0.57087296562393    0.64900979847381
H          -0.34729156686114   -1.22156013399862    1.75845885186938
H          -1.64776310256281    0.25761381343921    1.91279881330444
N          -0.34420469860961   -0.79112899020040   -3.21323930302237
H          -0.64712711779926   -0.59589505838862   -4.15809221649192
H          -1.07681762961443   -0.52175457181348   -2.55414469470135
H          -0.16791186212514   -1.78193805461264   -3.11375060923924
