    26
        -50.46679032  Gyration_radius:  2.45317183917 Dipole_moment: 3.989
 S          -1.14075410676898    0.55063429228741    0.67186099477606
O          -1.65794419487401   -0.60032102765276   -0.03097822817987
O          -0.80579081633345    1.63147352203389   -0.25402380259778
O           0.01650895869472    0.22895358481457    1.51700183234664
O          -2.27127939788205    1.05956398979725    1.61713032444709
H          -1.82624637586452    1.68702186875488    2.22224092363580
H           1.25477621800804    0.56060718416664    0.38528448648349
O           1.91621962169059    0.75006171485205   -0.30731280246996
H           1.74916758261079    1.66113568213703   -0.55830196936809
O           1.64026100101773   -1.97169208641377    1.38637381325521
H           2.42639851804358   -1.52998733274727    1.05565119402370
H           1.01178924879166   -1.26275723002708    1.60271092758603
O          -0.47281908447009    2.22991374109583    3.16523389833560
H          -0.46216074920166    1.96169847502234    4.08697539581852
H          -0.01503896858623    1.52804681451932    2.66386391126252
O           0.07747704047386   -2.57399496121971   -0.75898182854384
H          -0.65667068543184   -2.01178513193994   -0.45627023288736
H           0.67604568470843   -2.63008459426826    0.01030283839382
O           1.20816993394248   -0.85282537209689   -2.36706859747108
H           1.65625565239926   -0.30068632356419   -1.69215094642728
H           0.88065688684261   -1.64771502966986   -1.86162258837211
H          -0.06963059859878   -0.16874126553131   -2.56047208683126
N          -1.06240754153545    0.32011180031529   -2.46325109214846
H          -0.96227489262033    1.02964558939492   -1.67426353596539
H          -1.70510481446128   -0.37416488437057   -2.07304697097145
H          -1.40560411058398    0.72588698030820   -3.32688585809498
