    26
        -50.45958863  Gyration_radius:  2.41990057327 Dipole_moment: 7.274
 S          -0.42308049726423    0.14199120549013   -1.80307885116532
O          -1.60175695130948   -0.59438234245838   -2.16246722706203
O           0.68174768316024   -0.70847909560364   -1.35851207874385
O          -0.64719722296816    1.22163992933994   -0.84969714687172
O           0.08018330326428    0.85629905242166   -3.12722713457038
H          -0.29219894488008    0.27103946899359   -3.77685905143365
H          -1.24475342577936    0.75574746973585    0.58625178428099
O          -1.55331633678906    0.42830028630040    1.46469088528275
H          -2.18940221967408    1.06633188466095    1.79055240904522
O           2.17755446654838    0.15046037824853    0.48817883843858
H           1.98880143579911    1.18287428007774    0.47899437067302
H           1.67560868486731   -0.20970894370660   -0.32303488528334
O          -2.31383067613599   -1.92434051389708    0.09334199114168
H          -2.19314246254297   -1.53776440944943   -0.79168369463871
H          -2.27184528049620   -1.18260465921232    0.71256479028205
O           0.19738583242415   -2.77202107206401    0.44429103992179
H           0.51166572315472   -2.28945354040844   -0.33435292017468
H          -0.78126143834764   -2.71738314486948    0.38067991357853
O           0.72160060283760   -0.91584499308261    2.18400119821719
H           0.55627677517600   -1.75967424660780    1.66523432917785
H           1.62095568112253   -0.29030118239149    1.31289406488646
H          -0.11749415996111   -0.42455023045001    2.12797322786917
N           1.49041117810703    2.59764251599474    0.27159004148227
H           1.25147106593168    3.14326393108426    1.08903461182752
H           0.62825943830793    2.33828617713213   -0.21690623365190
H           2.04735773545987    3.17263182469290   -0.34645427250880
