    26
        -50.45958859  Gyration_radius:  2.41981297683 Dipole_moment: 7.266
 S           0.34934930645757    0.56012629877162   -1.73670148787206
O           0.07238107292951    1.53290188132503   -0.67908924169447
O          -0.75739389358051    0.35448966806824   -2.62742982408386
O           0.90884432394807   -0.66026470738939   -1.16885820663177
O           1.51742673343556    1.18409842827415   -2.61032338633047
H           1.00389218410866    1.58543716635048   -3.30205356216196
H          -0.12261440526438   -1.54078993824495   -0.27635331213310
O          -0.76151277253106   -2.01789117979175    0.30525146145353
H          -0.61755348507985   -2.95471779733920    0.16575060510219
O           1.07616430142937    1.12502456222327    1.60383174632724
H           0.72595739107487    1.39811827538964    0.68597497978503
H           1.84857283679050    0.44502497951408    1.40111515441555
O          -2.76700515587229   -0.55203640058459   -1.04566918577038
H          -2.27765278731132   -1.24221399603947   -0.57717181345169
H          -2.16892204958490   -0.22945244454386   -1.74250989076645
O          -2.32967927551049    1.40637469982639    0.72039441164696
H          -2.74826894711783    0.75458664684124    0.11633812772513
H          -1.58256211689188    1.75374520295754    0.21145710822017
O          -0.94346846662672   -0.13512795061182    2.28464842500846
H          -1.60418781316755    0.47564992298629    1.83835630664729
H          -0.93128469125369   -0.93359223659858    1.72689676927216
H           0.23256047666748    0.57083069265622    2.01260644998302
N           2.83848769949918   -0.54937984196831    0.82789955433392
H           3.74354929014699   -0.17340074109542    0.57836835629125
H           2.31682100780306   -0.73605124358533   -0.03355236546672
H           2.97809924565107   -1.42148996742865    1.32082281974561
