    26
        -50.46731543  Gyration_radius:  2.58041856837 Dipole_moment: 5.052
 S           0.87616389102877   -0.17477207326657    0.83520201626333
O           0.96527688690567   -0.80881247624013    2.24732678871518
O           1.74725785319001    0.98140490631812    0.76960214522243
O           1.26222894419156   -1.22956134338490   -0.09124649997579
O          -0.53156933664955    0.21313213195369    0.61924147605587
O          -2.48305058162411   -1.31447103568224   -0.20540797751409
H          -3.15658223206811   -0.70179507670527   -0.50634776281647
H          -1.79578809238912   -0.76149307147576    0.24153272325009
O           0.00681285669711   -0.42610640499931   -3.61658814433781
H           0.08772451841863    0.30403840760080   -2.95629122559744
H           0.84159262146715   -0.44581073804537   -4.08746003151531
O           0.35087757483077    1.30462722591424   -1.62677648201243
H          -0.14470842870630    0.96679354671233   -0.85719445642541
H           1.22988165417186    1.46718222655093   -1.26746672033195
O           0.04982430906946    2.69908723669772    1.81569122952446
H           0.79675032480795    2.24186664614166    1.37226011990419
H          -0.73354928189921    2.29668295311340    1.42817148755996
O           0.54395980122237    1.15803146622381    3.89746764732792
H           0.76505725139468   -0.10554804383537    2.92654303320100
H           1.39920131454103    1.43001022175413    4.23719778093371
H           0.27697564273560    1.85042921852377    3.24061882278248
N          -0.48210363344527   -2.21924945013412   -1.70364765696190
H          -1.39746795550264   -1.99302942847436   -1.24164262686342
H           0.27289946507777   -1.88456413730511   -1.01090650005193
H          -0.39036217838534   -3.21115242615817   -1.89030584725084
H          -0.35730317907095   -1.63692047180296   -2.56957332909638
