    26
        -50.47250311  Gyration_radius:  2.48714616511 Dipole_moment: 2.882
 S           0.76343023810352    2.01201855215523    0.71518699724698
O           0.75054127941043    2.33880164866665   -0.70552752038453
O           1.24235633856230    0.66455880861972    0.95731522974857
O          -0.50892006499116    2.29638913217476    1.35067480385372
O           1.81901200199053    2.98239778616131    1.38879560837385
H           1.36786394953995    3.81700113529329    1.32221748712049
H          -1.64452626091492    1.25753335132117    0.93758144927768
O          -2.32248949494980    0.56550524803050    0.71925781311061
H          -3.17545992058569    0.98769584528806    0.83136791757646
O          -0.48859605273374   -1.04975813464291    2.05394048258957
H           0.21114639938481   -0.40669959777447    1.82160287332928
H          -1.31483497056136   -0.60159783854584    1.82082745635938
O          -0.14151553477199   -2.74933929094233    0.11075952655904
H          -0.24061548763883   -3.65084950392623    0.41731062127345
H          -0.26822030883238   -2.16243020162902    0.91201192659437
O           2.11390574891934   -1.34445957070335   -0.62118734270731
H           2.04376923017802   -0.66240599027867    0.07213016072153
H           1.44388642076774   -2.01102913872865   -0.38263528107271
O          -1.61534660556721   -0.99095565449899   -1.41321119779140
H          -1.20529111446883   -1.75091384606125   -0.96217856513294
H          -1.96201259737595   -0.42413853805708   -0.69834255287582
H          -0.33015617418385   -0.24328361428418   -1.99287588348055
N           0.62909106146153    0.18066015778656   -2.16270378226854
H           1.33657031951090   -0.46889887767881   -1.70334018131666
H           0.68271746245718    1.10185481904846   -1.63863969151806
H           0.81369415678178    0.31234328317431   -3.15033835533235
