    26
        -50.46228286  Gyration_radius:  2.41044878958 Dipole_moment: 5.705
 S          -1.47527725599655    0.42343250431025   -0.26678632452947
O          -0.40357184387529    1.37103527786475    0.06081482305771
O          -2.36984965588986    0.22181842080474    0.86317022406182
O          -0.90024076963279   -0.84504373425869   -0.72883077630207
O          -2.30219275353557    1.02045571946956   -1.42186479626260
H          -1.64213605013762    1.14050798039923   -2.17817451845897
H           0.71600435977498   -0.51272639261735   -1.30557844502138
O           1.45718320504473    0.12573157195559   -1.27061652544786
H           1.02120023696493    0.87208025827059   -0.81044351751620
O           2.36545528793198   -0.88474906256302    1.00714323340192
H           3.29898064564581   -1.09850105054826    1.00805162051918
H           2.15481764656969   -0.51839430808033    0.10915036329803
O           0.02575134836463   -2.33729838408440    1.22658408140169
H           0.94843075079590   -2.02556692500165    1.21792406054602
H          -0.38670299483213   -1.94379408984501    0.42097515352157
O          -1.11517028194583   -0.73914803501125    2.78779817860074
H          -0.68281862589169   -1.54264461559717    2.26836990991150
H          -1.77182176236816   -0.34172555968430    2.08016543796326
O           0.74697283556437    0.89001238361620    2.37434095379476
H           0.32899433969210    1.25610640652081    1.55872035804314
H          -0.34402788609731   -0.02656911124217    2.80697165901281
H           1.47507529064044    0.32709528523588    2.05597374029603
N          -0.48134765654894    1.27303657036105   -3.28813241396944
H           0.39554624116250    0.94283194422265   -2.89500560921724
H          -0.36234686928328    2.23555910083033   -3.57579680877193
H          -0.69690778213224    0.71645784470285   -4.10492406193021
