    26
        -50.46487762  Gyration_radius:  2.37974384622 Dipole_moment: 4.245
 S           1.57187319436765   -0.04942585209692   -0.02219748210487
O           2.14882747235106    0.45011556428621    1.19739781811524
O           0.46844095959919    0.78575577202377   -0.51204493420520
O           0.93728524425774   -1.46120320735089    0.26232260991974
O           2.51723193205025   -0.29676059961662   -1.10757039670956
H           1.60731134831868   -0.35144006541410   -2.20930159644301
H           0.27590747590742   -1.36027697556701    1.03202579905246
O          -0.86642047501911   -1.04198677615453    1.99836702141716
H          -0.55355677408582   -0.25095349758449    2.48393072540707
O           0.35826366307811    1.16185993873201    2.95682897309711
H           0.78496056364540    1.19030578717540    3.81467353828419
H           1.07772394160761    0.98056227910413    2.30211665301901
O          -0.86798707500182   -2.01834545750562   -1.73320356024708
H          -1.57966248507646   -1.49096863466163   -1.33617097098782
H          -0.24691680589342   -2.18598235174501   -1.00411248506902
O          -1.25227445157376    2.42312244753537    0.98616586849554
H          -0.54400138998148    2.13932324337319    0.39199184144921
H          -0.90449855001529    2.25367086094698    1.86955123437065
O          -2.02666115189383   -0.00492531106197   -0.23539830042360
H          -2.48136096085921    0.79259269835582    0.06045272619206
H          -1.10041835821171    0.30170771531383   -0.37696526196163
H          -1.52406238705441   -0.72409710201243    1.34864319643464
N           0.75594244477900   -0.31894325599371   -2.92021005192994
H           0.34744213148817    0.60583415874162   -2.79288345766071
H           0.05447950968263   -1.04892156804210   -2.57362483720863
H           1.04213099346423   -0.48061979069144   -3.88078468027786
