    26
        -50.46487767  Gyration_radius:  2.37965454461 Dipole_moment: 4.233
 S           0.90518085921380   -0.26310329576368   -1.26132773390080
O          -0.04839352675826    0.73101017863640   -0.75330378661862
O           0.30312991259827   -1.19248109544007   -2.17976830368158
O           1.40111730112840   -1.05563979686783    0.00465269468620
O           2.10395817573166    0.41339199813447   -1.74908698598698
H           2.16125099481809    1.49803711920436   -0.81799450679659
H           0.60754801105983   -1.57038298673474    0.38540628874437
O          -0.69258120893364   -2.07743298088761    1.01315957661664
H          -1.29713051662927   -2.18760033635003    0.25039346982957
O           1.74038788871565    0.72254780058641    2.07389208174078
H           0.79857755386067    0.73740695920310    2.30861651550051
H           1.85478559242353   -0.09339621014928    1.55786080013901
O          -2.82677746921789    0.46328968257582   -0.45143470462773
H          -1.96396393495555    0.73304041242789   -0.79506645582965
H          -2.93544402867027   -0.44213125180381   -0.76513370642470
O          -1.99720826977515   -2.10126320816366   -1.34750460040903
H          -2.18479288403192   -2.90840788957805   -1.82938923914407
H          -1.17033005068692   -1.73309575030943   -1.74727247886675
O          -0.99112459228051    0.54158028070741    1.69667929176862
H          -0.63184876480967    0.65103966924100    0.78508410797580
H          -1.93134868135762    0.72720072402149    1.58825941846990
H          -0.96698702560819   -1.25557707587476    1.46564080416908
N           2.00296788032368    2.27203288467523   -0.03916034061331
H           1.07539838493673    2.64668192026988   -0.23388557118320
H           2.71699795391475    2.99365602165242   -0.05323550884283
H           1.96663044451896    1.74959623658134    0.89391887343599
