    26
        -50.46044992  Gyration_radius:  2.45531141585 Dipole_moment: 6.758
 S           0.37781675203217   -1.50743746463066   -0.17058878505229
O          -0.67841851774641   -0.77807535202273   -0.87291875064537
O          -0.09472241246907   -2.20793343125201    0.98848609059219
O           1.42641279859770   -0.41252596746813    0.28137900759207
O           1.15932955541087   -2.32805983845470   -1.09886317664669
H           1.84706468329351   -1.34893845501026   -1.83808423338794
H           0.98086799649919    0.45350229760628    0.48896760145132
O           0.42604714008364    1.96090962553505    0.63318264275998
H           0.94675550791129    2.41981769024250    1.29441758987291
O          -3.06043467698257   -0.16413737294174    0.13414024815436
H          -3.54822936614035    0.14662492370931   -0.62999098737985
H          -2.21266188252977   -0.51401409618957   -0.20971784305593
O           0.40285722992851    1.25433963417291   -2.05682163148103
H           0.48712251083435    1.83016696853828   -1.28222606325376
H          -0.17414886473275    0.52054962591053   -1.72994147226445
O          -0.57957439631635   -0.67948579000260    3.08653936100210
H          -1.14490726018720   -1.21028073445964    3.65043429737564
H          -0.35674889233029   -1.25808493042865    2.32383000280999
O          -1.74056586926364    1.42141108652501    1.87343767864740
H          -1.36309449792754    0.72376265384916    2.45079168658142
H          -0.47952375860786    1.80600908337311    1.07238970175192
H          -2.35182049712711    0.94033487162481    1.27985176484479
N           2.34443088517971   -0.47291680694232   -2.32805097962871
H           1.62096649608711    0.32502126431080   -2.28411834829536
H           2.60594576079235   -0.68797359254044   -3.28503051018952
H           3.15923356560578   -0.23258589352891   -1.77149489249137
