    26
        -50.45662700  Gyration_radius:  2.48383301507 Dipole_moment: 1.839
 S          -0.50312566953406    0.49642387277173   -1.94580244065080
O          -1.15477692868728   -0.39177085607282   -1.00626896564063
O           0.93815872726469    0.26106798165767   -1.99222468854616
O          -0.82068266838312    1.89778354116135   -1.77887376653557
O          -1.06326256210774    0.09055064461750   -3.37677752207898
H          -0.89412296337069    0.88046214246070   -3.87933184692512
H           0.02497355695144    2.14941059022980   -0.45453113484936
O           0.59344428554630    2.30533401298470    0.34191777396164
H           1.20509747641602    2.99921927796018    0.08829175086804
O          -1.21264532180584    2.04407475383669    2.44437342822435
H          -0.67969949747841    2.22306021321027    3.22116977417757
H          -0.66426069268119    2.27274993449748    1.67486002687507
O           1.91244707677560   -1.44006840795218   -0.42561428985420
H           1.09960452361936   -2.15181377761611   -0.34355191409965
H           1.59105126193372   -0.77632553817983   -1.14093406799166
O          -1.11989549500920   -0.58768981760380    1.70715131986212
H          -1.28112673476042   -0.50806250768909    0.75024594396415
H          -1.40395469751727    0.26784834608353    2.07882005881562
O           1.43587649526801    0.00542573999361    1.56383263222464
H           1.84165655285654   -0.87114076085326    0.45428536753802
H           1.29603438567791    0.87774203392241    1.15055249572553
H           0.51469185770298   -0.31437556226301    1.76200516846617
N          -0.15889505798440   -2.86764708991727   -0.23793335293980
H          -0.29428552747477   -3.74469356185811   -0.72201109876632
H          -0.75188042578522   -2.14768190773840   -0.66052301355572
H          -0.45042194796726   -2.96988329794200    0.72687237186199
