    26
        -50.45919446  Gyration_radius:  2.52679515167 Dipole_moment: 2.050
 S           1.03096174098558    0.10265842785956   -0.94767069989847
O          -0.15324198853778    0.97412170174393   -0.98191006369285
O           0.65798543231246   -1.28570438691677   -1.17102298082338
O           1.75833119132387    0.26381908804899    0.30284081930257
O           1.93571014680574    0.57672005653165   -2.11595855546375
H           2.70246429258187   -0.04893325807024   -2.05250143258473
H           0.76850275786013   -0.07543316419084    1.50463790650232
O           0.07818891191323   -0.28068251680693    2.19131947778655
H           0.55376743625715   -0.57518136055602    2.96974380276431
O          -0.89282219521515    2.17050918730490    1.32470133352278
H          -0.49773357019819    1.94667933620596    0.46072420090050
H          -0.59514985827389    1.46094199732116    1.91441872117284
O          -3.36725815003597    1.63506954953824    0.75934584837342
H          -2.46352666827405    1.91843135271919    1.08951928779195
H          -3.76872605805420    2.41185005773868    0.36643563770532
O          -2.43697294964156   -0.05840743621529   -0.87837819780761
H          -2.92153934449923    0.59085518296414   -0.23190433118782
H          -1.52763178833415    0.38959612115086   -1.07774746353630
O          -1.31296976032398   -1.84150513862996    0.44634594980861
H          -2.11833104743170   -0.89687157363668   -0.30106724672594
H          -0.55096742211710   -1.84804245663192   -0.18400457697306
H          -0.97124303889751   -1.37464153234626    1.23439419135144
N           3.50874108567731   -1.34670298844033   -1.34031343885034
H           2.69696363253068   -1.95460416889808   -1.37497933892482
H           3.54265664826659   -0.95892570504317   -0.40434424331632
H           4.34384058332145   -1.89561636279454   -1.50262461723191
