    26
        -50.44835617  Gyration_radius:  2.64527316337 Dipole_moment: 5.185
 S           0.99775906611037    0.13039685822029   -1.13344858813324
O           1.95024956291316    0.39132431713326   -0.08369162677718
O          -0.08360887922064    1.05597375833481   -1.23855575136350
O           0.45350589424736   -1.30937191763918   -0.95432951406790
O           1.72467414037405    0.01863760095266   -2.47614224392730
H           2.56753432741051   -0.53014227277060   -2.26314282879753
H          -0.11889612931508   -1.39680446795569   -0.11418702656230
O          -0.95198965255787   -1.54042939710543    1.14817169759606
H          -1.30194625795784   -2.43183274321239    1.20096036225585
O          -1.73933939583691    2.13961867984989    2.03863202798232
H          -0.85099730196852    1.71840057451916    2.05786661651321
H          -1.92443949852644    2.40580349638233    2.94043030038653
O          -2.72682651914371    0.83573205092926   -1.62792235129892
H          -1.75427908504287    0.89593370940480   -1.57402129105301
H          -3.03579439125983    1.74094244301553   -1.70220474129505
O           0.49506624942535    0.65284041898405    2.20235033548932
H           0.07591762747504   -0.21285615224754    2.11643575759294
H           1.10787089318205    0.71656062184285    1.45198182024857
O          -2.94536520896394    0.01111198072622    0.92052665864241
H          -2.99737241604179    0.22960914591719   -0.03509409003623
H          -1.77494752878641   -0.92467259034861    1.05739984479194
H          -2.62469209690927    0.83520870838126    1.34830893544755
N           3.71042554662914   -1.27015816200955   -1.50503259491850
H           4.67369512022417   -1.09164323441302   -1.75562574260072
H           3.57743105923025   -2.26610853945323   -1.39258634843176
H           3.49636489431739   -0.80407489743358   -0.62707959767757
