    26
        -50.44835618  Gyration_radius:  2.64540780912 Dipole_moment: 5.185
 S           0.65537609054300   -0.14651555043935   -1.35858238943680
O           1.70025982131745    0.66750377320996   -0.79032330597823
O          -0.63640415310276    0.45641111571840   -1.42846947590855
O           0.58274841150152   -1.47519290032980   -0.56438992697970
O           1.07947615143471   -0.64040061826150   -2.74422098510064
H           2.06681257426478   -0.90269518846706   -2.62846214389816
H           0.25059994336406   -1.32901905723659    0.38923435341044
O          -0.21995238786067   -1.11551565734855    1.81811132358213
H          -0.29059342498989   -1.96304502269862    2.26149207507103
O          -1.78290177393799    2.41853535123619    1.65247703070323
H          -1.83671514998647    2.97704480564191    2.42934795868478
H          -0.83014466935266    2.20277069178746    1.53993973449039
O          -3.13574620028568   -0.36270043864079   -0.90925473494704
H          -2.22965855019693   -0.11481367502074   -1.17373324809974
H          -3.69123953732676    0.37170928446720   -1.17846256155815
O           0.75607937567558    1.53435448139148    1.61169143262630
H           0.58396452447981    0.64387527663410    1.94327365611152
H           1.15129940653344    1.40907480683407    0.73377564250029
O          -2.56471918798484   -0.15462595244677    1.70870822366263
H          -2.40005863253204    0.81362326659488    1.72622342935704
H          -2.87932027419187   -0.33829465052588    0.79717348037862
H          -1.18031458293731   -0.73990167641578    1.78381602286115
N           3.50465667757399   -1.07287053793394   -2.05273720861293
H           3.36362840904735   -0.34793552673959   -1.35381647954626
H           4.30393026948891   -0.83829115747695   -2.62598925256443
H           3.67893687946393   -1.95308525352160   -1.58682265081196
