    26
        -50.44835600  Gyration_radius:  2.64525086986 Dipole_moment: 5.180
 S           0.47480416297688   -1.43675528369826    0.10134313273349
O           0.79895006602338   -1.28268977004270   -1.29457285792555
O          -0.90285224483235   -1.28526873044429    0.44228516921831
O           1.33974409174440   -0.44331723981501    0.91787851090681
O           0.99552995389980   -2.78439703449610    0.60785328858508
H           1.92703212906155   -2.87207842669595    0.18170647493406
H           1.07606291873315    0.52572345161598    0.73743850151509
O           0.70527930408311    1.97185405577543    0.45525290936387
H           1.23322819236809    2.55100747706787    1.00814194671258
O          -2.76607579775666    1.62197453077591   -1.21455405115644
H          -1.91071877862228    1.31604586927906   -1.59104693742105
H          -3.09833837877401    2.28600486633698   -1.82036630210434
O          -2.23837936713685   -0.03856692969787    2.40440354091399
H          -1.72964080270300   -0.55514717089749    1.75124890294669
H          -3.15619410687778   -0.27918396362473    2.26288773211558
O          -0.26620620272433    1.10381684416452   -2.05833039631000
H           0.20192596279378    1.60776320525732   -1.38051228050920
H           0.03864820033089    0.18807870650194   -1.95328590637126
O          -1.70837074842785    2.28776465372079    1.16735153465648
H          -0.27095907159409    2.11428535038155    0.75748826718085
H          -2.20178115761667    2.10594319647382    0.33765207263535
H          -1.90992370080964    1.52439879913444    1.75067400849506
N           3.18322423741224   -2.64430965823701   -0.71186545472391
H           3.59508446888218   -3.42532844009821   -1.20468349265827
H           3.91887985851049   -2.09689826014785   -0.28602853546832
H           2.67104682105551   -2.06072008857928   -1.36835978827070
