    26
        -50.44835635  Gyration_radius:  2.64536726674 Dipole_moment: 5.184
 S           1.32629034273771    0.28734897072527    0.67195561013063
O           0.89562589775112    1.66226558352700    0.63442495401073
O           1.47109611918426   -0.35550721689424   -0.59403551263380
O           0.34385887755862   -0.50977662509824    1.56685193350330
O           2.62821667258238    0.17435209864589    1.46946486742238
H           2.48592267285025    0.79468301527836    2.27687123140853
H          -0.58063233428251   -0.58440209714711    1.14161632214162
O          -1.96633887813979   -0.67785970652352    0.52559464652753
H          -2.53165906381677   -1.21038179635545    1.08835237581217
O          -1.29264051116257    0.26071655515112   -3.16569296221451
H          -1.97857355929556    0.64105218918247   -3.71632486841568
H          -1.20319518873266    0.86081862310282   -2.39190312742204
O          -1.35837992698184    1.69595441045701   -0.89262590540295
H          -1.82016907989487    1.04612896759761   -0.34764672111109
H          -0.50568223401441    1.84088375687491   -0.45163979178105
O           0.81595295960637   -2.76165386414083   -1.57842346766923
H           1.18411232179898   -2.76804099510460   -2.46430183465370
H           1.12174952356390   -1.92723217269620   -1.17516301618737
O          -1.73777420668425   -1.92933849230649   -1.66860283293646
H          -0.86615458821228   -2.37856243660775   -1.62276789798036
H          -1.88576685374176   -1.20058402176259   -0.36034892344046
H          -1.61046516159768   -1.20252848099780   -2.31701368592326
N           1.90710959660198    1.87058169673800    3.24434569178168
H           1.32026762020903    2.27650923657901    2.51993197696145
H           2.51764436942183    2.58261480148980    3.62223177530292
H           1.31958462268446    1.51195800028873    3.98484915276103
