    26
        -50.47072337  Gyration_radius:  2.48632958486 Dipole_moment: 3.603
 S          -0.79714218799380    0.58519090131026   -0.73149058327730
O          -1.32648173417798    0.25017777905717    0.58592369986196
O          -0.75886447036602   -0.58264543585253   -1.60110960849401
O           0.53928627362589    1.18128265576114   -0.61774362838432
O          -1.72692080318015    1.62749248503626   -1.38899937238561
H          -2.00510136269191    2.19940479125334   -0.61438249302406
H           1.55622048363725    0.17235263826579    0.09616737011467
O           2.15632078105309   -0.48799155095672    0.53147925444927
H           2.91276328584014    0.01040588072020    0.84550455248344
O           0.46062364035664    3.44534343539557    0.73891571333586
H           0.57399816837954    2.60250294891925    0.24649284481556
H           0.70770319021631    4.14414910663840    0.13090601454520
O           1.73270299025550   -2.14675258463676   -1.62253546788506
H           2.12491383432019   -1.64209927612071   -0.88842923070921
H           1.15316332450112   -1.51814857931119   -2.07252989745301
O          -2.14528378232590    2.78743577405847    0.85566834749239
H          -1.27260139084652    3.21270476949518    0.99180982106662
H          -2.04834398952431    1.88770118471563    1.20442717354101
O           0.03216338899666   -1.60593823082728    1.87445559779748
H          -0.30871539670620   -2.52348889922331    0.65695453320875
H           0.92735436496093   -1.29216065937866    1.65895485063809
H          -0.55456733587099   -0.86976590195528    1.59052505371421
N          -0.47104563607838   -2.84073678249752   -0.35630783420294
H          -0.84812725206047   -1.98423677610335   -0.85646203055909
H          -1.07676066646005   -3.64846707512195   -0.43976107528691
H           0.46274227213492   -2.96371258862446   -0.81843358539346
