    26
        -50.47072343  Gyration_radius:  2.48641364272 Dipole_moment: 3.604
 S          -0.82447216025323   -0.48373748789369    0.77425797984541
O          -0.58729436625525    0.94288304267457    0.96522854666312
O           0.25974384992412   -1.28149737092102    1.33049347135478
O          -1.00845307887710   -0.79358677494924   -0.64855172901541
O          -2.12074572769794   -0.87464394044112    1.51600883776952
H          -2.70800699783750   -0.07439193400546    1.37748463898997
H           0.28279499811971   -0.37382926802523   -1.49619413073130
O           1.10772553767892   -0.11070144000101   -1.98188435722334
H           0.86183916110449   -0.05300038434144   -2.90677931622527
O           2.46535419941937   -1.98088941510888   -0.48906744669276
H           2.13091615593705   -1.41388606062248   -1.20611747161178
H           1.67596847430309   -2.26358069017250   -0.00905719525429
O          -3.23594223759468    1.34803824687104    0.90358339884080
H          -2.32942010964082    1.68602022489167    0.97082655328012
H          -3.38737270080449    1.20326613917080   -0.05403954281447
O          -3.12938183615575    0.43860675438858   -1.62598811475999
H          -3.75917695820480   -0.24111513359879   -1.87173371722181
H          -2.31523348345590   -0.03307193615082   -1.34244504207026
O           1.64299526919284    1.83972922466673   -0.11761576039174
H           0.75661022279621    1.71480038832139    0.28928949899148
H           2.36184439357306    0.81162846875211    0.81323574390880
H           1.58646935963445    1.35847136143162   -0.96105153109352
N           2.56743056237946   -0.09615613567475    1.34934392437014
H           2.92722376654855   -0.80849356472350    0.66846253671538
H           1.61455117186584   -0.49357861051396    1.59441332411189
H           3.16403253429197    0.03271631598232    2.15789689026366
