    26
        -50.45919437  Gyration_radius:  2.5268396292 Dipole_moment: 2.047
 S          -0.70921597202523   -1.13579643898286   -0.42304044063052
O           0.06062490871959   -1.11497311889535    0.82997137419492
O           0.16921181195355   -0.97769674861725   -1.57185560970720
O          -1.75368852499469   -0.12205234693646   -0.40794000105437
O          -1.37410111769638   -2.53659412100382   -0.48456744380983
H          -1.86122828510351   -2.49835286381576   -1.34749139396445
H          -1.06797892119313    1.29929434804369   -0.18527694237079
O          -0.56012819080413    2.13889164033718   -0.02025564328667
H          -1.09269371184949    2.84957405000544   -0.38106405664483
O           2.25476338086488    1.05649158744997    2.89673125699998
H           1.25587010180265    1.12983327333012    2.84356195402752
H           2.45018081320415    0.59646551647073    3.71473492356460
O          -0.30634101476023    0.98426797078648    2.49051689010360
H          -0.35276775095523    0.12635533600431    2.02738914024208
H          -0.48514251446859    1.63928144972248    1.79855660400910
O           2.44448225994430   -0.33564352096484    0.78910811370474
H           1.52459835653561   -0.80507783171593    0.81984169989887
H           2.48167251559028    0.24134498037516    1.64920384985994
O           1.70021610822266    1.08520782239755   -1.11487578333272
H           1.01994414782839    1.66967862619492   -0.72585761177373
H           2.29544998541646    0.33118015382942   -0.02996398524974
H           1.18646683992472    0.33007980056512   -1.49432074628811
N          -2.32464883515239   -1.70282406147158   -2.75988618717592
H          -2.84332844704246   -1.90731186055783   -3.60499471278172
H          -1.37459576720356   -1.44411283789380   -3.00500497429851
H          -2.73762220673617   -0.89751079462770   -2.30322028421741
