    26
        -50.47128651  Gyration_radius:  2.44434966728 Dipole_moment: 1.913
 S           0.35627672418990    0.23544160163931   -1.84387875196982
O           1.00876396188408    1.43237614363365   -1.33835042468748
O          -1.08979315804163    0.36908033563554   -1.86162370680376
O           0.80071889765201   -0.96830064165656   -1.17006854523258
O           0.81441806728840    0.09204289895001   -3.34989909805147
H           0.60788079378105    0.96184268023163   -3.67295234917067
H          -0.07981565681292   -1.47741141884279    0.22929114271991
O          -0.59507975324302   -1.64528314504217    1.03998931822103
H          -1.51813393870928   -1.62129932952694    0.73683631516139
O           2.60197541104565   -1.47508850096426    0.74289478409141
H           2.06402336741624   -2.03314823712061    1.31202360403508
H           2.11155453992466   -1.42675215944888   -0.10076809693422
O          -2.83185583956222   -1.12581637874222   -0.47525469717940
H          -3.25882457424986   -1.77349467764026   -1.03703144348275
H          -2.23055365990656   -0.61378606664019   -1.05476846586036
O          -1.96985188322451    1.63581289091455    0.36842845562306
H          -2.75445548679670    1.08303547476785    0.44052600764729
H          -1.55875008482732    1.37453969539459   -0.47462794490782
O          -0.36576169263821    0.69542791547917    2.29485820580037
H           0.99070036350949    1.00538951092969    1.69873686031867
H          -0.99082695157416    1.18955008055067    1.71949636943687
H          -0.47983530627667   -0.24473183865089    2.01983623731568
N           1.89773476484773    1.08557975540622    1.10683941008537
H           2.52607268785869    1.79461907643144    1.46670635965986
H           1.59555215663425    1.31167720138486    0.12082510132859
H           2.34786623983205    0.13869710292837    1.08193533282590
