    26
        -50.47128627  Gyration_radius:  2.44439996442 Dipole_moment: 1.917
 S          -0.09904787023048    0.55763055938479   -1.80590286960756
O           1.33282511491019    0.31793494882591   -1.72605884179866
O          -0.48144745251778    1.79688295954723   -1.15246450357838
O          -0.87995839772757   -0.57786216310063   -1.35721247298379
O          -0.42562881028847    0.73769508537478   -3.34206937656816
H           0.22293061559218    1.39177546618221   -3.57699654182935
H          -1.31640844496950   -0.64078383971749    0.31571482679653
O          -1.45531334223038   -0.62048696947029    1.28069136612521
H          -1.82307230380968    0.26429799707856    1.44323750724153
O           0.89320606042212    2.13151922806101    1.16071508508243
H           0.13715002360709    2.51150785522899    1.61940629389513
H           0.59877278194842    2.03124534586900    0.23807688110328
O          -0.26610154177689   -3.03220044655596   -0.48590794780519
H          -0.59081859777599   -2.26950010379212   -1.00313135115726
H          -0.82474722649819   -3.05861608001027    0.29634609193523
O          -2.11125236366295    2.03278642870417    0.96410801026034
H          -1.57661135340174    1.99089360675775    0.14438218203103
H          -2.97909006321292    2.34269908904214    0.70306729908543
O           1.04613812573563   -0.34728255514317    2.16065566566589
H           0.08780525600694   -0.53242221585567    2.01966734005996
H           1.65531670692358   -1.08013692443031    0.98470137926405
H           1.14366110881148    0.60043366011778    1.91918995443116
N           1.90193872287056   -1.54411295952891    0.03418587114380
H           2.84792231208513   -1.90743074489733    0.02174498099541
H           1.77026027314449   -0.80314076256324   -0.70628270602223
H           1.19157066603867   -2.29332645511374   -0.14986413375934
