    26
        -50.47037234  Gyration_radius:  2.48301346924 Dipole_moment: 2.685
 S          -0.77107989383585    1.04743787894361   -0.57458244865490
O          -1.24182431747470    0.86903313743202    0.78555786654204
O          -0.68011148885698   -0.23447307514495   -1.27439893097082
O           0.48218855874648    1.78855870469103   -0.65873079008838
O          -1.87007156892875    1.88833903946585   -1.30256218603596
H          -1.44125524900843    2.17051163583853   -2.13565456437583
H           1.72817075644249    1.08952789000512    0.17024221727878
O           2.43277915244242    0.60290926436681    0.65607265576867
H           3.21234331970728    1.15994108143923    0.63618628485767
O          -0.07493882370461    2.63590851492075   -3.08869927162948
H           0.41125632004424    2.33809626414119   -2.29496915428562
H           0.09033001391822    3.57754323251122   -3.17565623647387
O           0.12108819646007   -2.62748244571377    1.61130862994210
H          -1.13275696557469   -2.18998572068938    1.01748726630409
H           0.32856912253526   -1.83992256470239    2.17219132036146
O           0.55687387070424   -0.18732709466668    2.54994154695361
H          -0.13156549497255    0.30155063660696    2.06723152072519
H           1.38547580035480    0.06142376679890    2.11299591619817
O           1.46316312144180   -1.74304530333273   -0.49833039552277
H           2.03771930102893   -1.06387211131455   -0.11483188906269
H           0.72461961094442   -2.52564640914920    0.83497400928944
H           0.75694870524590   -1.25003822382989   -0.95061752139143
N          -1.95115585708943   -1.64109113487970    0.49546885553664
H          -1.55107763314180   -1.32289975552447   -0.42311384751158
H          -2.07381427112133   -0.73713108937782    0.98033794156352
H          -2.81187427637961   -2.16786613886745    0.40215121471733
