    26
        -50.46862855  Gyration_radius:  2.47479849661 Dipole_moment: 4.019
 S           1.14687367936926    1.72712734895794   -0.86379708380949
O           1.13611329361823    0.37226428993015   -1.44129911575629
O           1.30390074957061    1.67920864373906    0.56417726597013
O           0.02873282164373    2.51663088897838   -1.33682482307874
O           2.44230740332489    2.42702209102379   -1.45920915804712
H           2.09906367149584    2.79097572424386   -2.26839938096962
H          -1.19884928786136    1.91182633625744   -0.49069087159090
O          -1.95452660033313    1.46120771480345   -0.03951447755148
H          -2.56248465354434    2.15651027006774    0.21795193727060
O          -1.06757268027283   -2.51033309883598   -0.06978970986758
H          -1.23248208545723   -1.81483816480180   -0.77375616711156
H          -1.50987929587145   -3.30624682521069   -0.36532221176815
O          -1.34761634594323   -0.58294073522299   -1.78844030038191
H          -1.84674506753854    0.09939535432430   -1.31400581807026
H          -0.43862166256833   -0.22613950532478   -1.84001800637586
O           1.10671893902698   -0.14704509204192    2.49409407291056
H           1.26905739511890    0.69127569207393    2.02232409744261
H           1.38870149074080   -1.03028679809465    1.30879196753186
O          -1.46786476700462   -0.47232597337535    1.88930495224121
H          -1.47448830112349   -1.27460009066828    1.34995960870268
H           0.12462713496928   -0.23057171084625    2.51299221215769
H          -1.64884502531193    0.25983375218617    1.27520433326341
N           1.43818998903575   -1.53268020079264    0.34025428884247
H           0.58010536145461   -2.10474942639714    0.22434933572513
H           2.27658736230362   -2.09349352883219    0.24404642908026
H           1.40899648113488   -0.76702694615025   -0.39238335678328
