    26
        -50.46482637  Gyration_radius:  2.44710869243 Dipole_moment: 2.893
 S          -0.45671891979646   -0.30966364853442   -1.82518569673886
O           0.28170000150488   -1.31580998239107   -1.08844758466867
O           0.33730609266346    0.90044208642997   -2.01625666446664
O          -1.76310558850282   -0.01511862250637   -1.27200428507047
O          -0.73005933682742   -0.91584948707465   -3.26163907179552
H          -1.51318435380545   -0.43512514314810   -3.50514475321314
H          -1.74491726373913    0.56521797200857    0.23257497187113
O          -1.69427924102569    0.99325676651177    1.12499425728159
H          -2.59882797319423    1.05280097974569    1.43753229316546
O          -1.22654272566301   -2.68453325500118    0.64603271665776
H          -0.77810644754182   -2.17359459600016   -0.05699663269474
H          -0.91738839055416   -3.58761063073267    0.55845351594925
O           0.02665786110767    2.85519592492206    0.16369594155538
H          -0.62358554685030    2.34348299221042    0.67930148236591
H          -0.12400342557461    2.59001205175413   -0.75270866208552
O           1.95510242377782   -1.02683715897405    1.02995475316732
H           1.49819113859937   -1.38919745708204    0.25115783838802
H           2.14581399074951    0.36122479110930    0.46292888440919
O          -0.23340553582058   -0.92487714284170    2.48367337681487
H           1.24443764754074   -0.98855718370809    1.72440038443970
H          -0.70367721354734   -0.14028489466677    2.15649816247547
H          -0.66932581390349   -1.66904830291899    2.02762603350631
N           2.12387086368426    1.26754065043936   -0.13613818434951
H           1.51484837479097    2.00391931169441    0.29152280619108
H           1.59495125905863    1.02772822943568   -1.01752393024023
H           3.05424812286646    1.61528573932193   -0.33830194292438
