    26
        -50.46482765  Gyration_radius:  2.44754817315 Dipole_moment: 2.952
 S           0.53915059664542   -0.31621619054957    1.80196885835409
O          -0.44149668802076    0.71134880412800    1.51485346771709
O           1.84908728864021    0.02829562505208    1.25694406365884
O           0.12721722638814   -1.64892810897839    1.41026597831283
O           0.69206335864323   -0.36075017928311    3.37692940467493
H           1.02025429053421   -1.24511426699322    3.49484281248730
H          -0.15967182799989   -1.83276351445802   -0.16511717909905
O          -0.24942033180360   -1.93280532112706   -1.14718078336162
H          -0.61971358745336   -2.80610542444570   -1.28741718929358
O           2.24557728376687   -0.93658808261678   -1.50588008135283
H           1.38028530671687   -1.37808519896110   -1.59112979367527
H           2.45543740120207   -0.98874406099122   -0.56481155574368
O          -0.79541113356107    2.18118942783288   -0.74008898132011
H          -0.82814471770553    1.87630424074862    0.18323708943994
H           0.67467358068097    1.89551851125462   -0.94359721225535
O          -2.86461490217863   -0.26026409980983    0.93013198470085
H          -3.46674006216954    0.33153593513331    1.38399625374874
H          -1.96487814812507   -0.00550942839171    1.21655540331261
O          -2.07822988669759    0.07980017824743   -1.66296739644855
H          -1.40941695802588   -0.62470258446417   -1.67168153724512
H          -2.57811103125623   -0.07928824739698   -0.84038814904995
H          -1.32053608888350    1.49643817704696   -1.23409168041015
N           1.70846542207013    1.57272111795069   -0.85390295329860
H           2.36095530691113    2.33306969094818   -1.00733655372706
H           1.91559259374982    0.74954761499572   -1.46671638722339
H           1.80762573793511    1.16009539513458    0.11258213709611
