    26
        -50.45920936  Gyration_radius:  2.45365320619 Dipole_moment: 2.435
 S           0.71568425222981   -0.05198815362504    1.56909875493988
O          -0.58019209485302   -0.61465330386863    1.19841471479284
O           0.79308996453124    1.36565287558771    1.33846321287727
O           1.79725135330917   -0.81113096530274    0.94360640641405
O           0.87002889530282   -0.27774892348799    3.12503378584405
H           0.91158343472138   -1.22549625752043    3.20265716167757
H           1.64279136126376   -0.01415825082774   -0.50721446956315
O           1.33921029192354    0.60016572281358   -1.20955584884688
H           1.19543386658482    1.41889673642525   -0.72155099222718
O          -2.22686447668076    0.80958033969789   -0.34094707217304
H          -1.78438125905946    0.30250396751739    0.37280507225609
H          -1.92983486918880    1.75246671477568   -0.20752992074127
O           1.76864775657479   -3.04230005311148   -0.51157089097939
H           1.86785088588317   -2.28735998622161    0.10275097763100
H           2.43812007718933   -2.92770841857365   -1.18807215486541
O          -0.81590415934533   -2.40261477125855   -0.77598798922705
H          -0.84030280065472   -1.90124860692363    0.06508008050242
H           0.07232162042787   -2.81841009378987   -0.79529648509344
O          -0.90114953481007   -0.29174970195484   -2.11605771432523
H          -0.90046410661366   -1.25899831358976   -1.69347916727831
H          -1.57129307524336    0.24081729888497   -1.44261423189972
H           0.01563872820609    0.08098436525684   -1.89770042810202
N          -1.13210160219462    3.15839165116333    0.24433409259122
H          -0.70000540830005    3.78643531290640   -0.42158044194463
H          -0.39043556681190    2.68743524115510    0.76446842096713
H          -1.65472353439744    3.72223561393347    0.90244511675547
