    26
        -50.47165218  Gyration_radius:  2.4177995059 Dipole_moment: 3.351
 S          -0.52220540234902   -0.98372601166566   -0.77846363181930
O          -1.30578706192429   -1.84484375945138    0.08622888587374
O           0.91170378521733   -1.05839077992724   -0.48533584522781
O          -0.97616442692235    0.40782778948707   -0.68859075113793
O          -0.73058957469530   -1.45570228106453   -2.23698387284940
H           0.15045730303652   -1.47092679407965   -2.70119794654870
H           0.01742504067748    1.49402647359809    0.14069011082970
O           0.59475810817256    2.07280144902709    0.68537864881124
H           1.29595240708948    2.35786384950328    0.09321254563820
O          -2.25696589146042    1.52405784376023    1.40362931340448
H          -1.63344647965562    2.24804343191207    1.52193455743950
H          -2.04374011995875    1.15004546058478    0.52572737717485
O           1.66691577697362   -1.33986460965025   -3.25653848495369
H           2.16380514274428   -1.79640105989049   -2.57132419107127
H           1.79944164886079   -0.38609051875316   -3.08886541445588
O           1.26569070752041   -0.17503041180894    2.02047397388934
H           1.19523114667448    0.76451181424674    1.75511309338020
H           1.31171535205545   -0.65330232251012    1.16827497905097
O           1.43588491897161    1.04693796287098   -1.98868475480302
H           1.34465622782504    0.32988180388479   -1.32665974448064
H           0.53623197159697    1.33984049556983   -2.16037818154058
N          -1.25947493423002   -0.72262136663696    2.41690801855547
H          -0.21033387827536   -0.52526938908620    2.46601517177736
H          -1.37791438011011   -1.30089368514148    1.52916764415268
H          -1.61019333970495   -1.20640920263634    3.23564962828973
H          -1.76305402812049    0.18363382787473    2.23461886062126
