    26
        -50.46810223  Gyration_radius:  2.50757783049 Dipole_moment: 3.305
 S          -0.73125013234942   -1.74443654343861    0.79693200154320
O          -1.34845042891167   -0.45930375185053    0.48864356179744
O           0.62378957664561   -1.54599947172659    1.30274250946891
O          -0.83121927084016   -2.71135824910741   -0.26257715221773
O          -1.55212861070510   -2.34656451244477    2.01918080873097
H          -2.02485411191239   -3.06213608030698    1.60667084311914
H          -0.21312065714115   -1.72222303345306   -1.57268954096030
O           0.18441619887197   -1.00626569359060   -2.09719579561545
H           1.08535324185802   -0.90143105916851   -1.77016219297757
O          -1.82083763448386    0.82259747040924   -1.93445788403578
H          -1.12825573394762    0.21418200650860   -2.25470397814696
H          -2.05831052741583    0.45151514318826   -1.07403372446034
O          -0.51330601319849    3.05975950461504   -1.47014734775748
H          -1.12930714989100    2.31368033871808   -1.70124985009922
H          -0.10086322810324    3.32531878811095   -2.29305969494933
O           0.72222544833573    0.61786555877125    2.88664362224397
H           0.04724688346551    0.54045811945934    3.56180294096076
H           0.72822159676700   -0.23982834045208    2.41424560784337
O           2.37871181692014   -0.55104936790546   -0.35580658312860
H           3.28073721618095   -0.77833731456158   -0.12572945951297
H           1.79724116797794   -1.03869982902837    0.27608059195562
N           0.53694803764604    1.38233010445356    0.30732457978229
H          -0.25534348619683    0.68177539242230    0.31998551805242
H           0.24945029904614    2.19507477773973   -0.29047052854939
H           0.70870501902513    1.60525140598395    1.29788312996626
H           1.36420047234009    0.89782462663244   -0.07585200305341
