    26
        -50.46819312  Gyration_radius:  2.49165341943 Dipole_moment: 4.228
 S          -0.71006996674212   -1.39729836076761   -0.31576287130194
O          -1.09913117498226   -0.88742111606858    0.98471744097580
O           0.63923655779946   -1.93035703349921   -0.34182327723553
O          -0.87459801303014   -0.36370985116020   -1.35205506841455
O          -1.71119293471787   -2.54361220397913   -0.66551593291618
H          -1.37338462252486   -2.85919490740489   -1.52766155671214
H           0.13974798905455    0.90689351535172   -1.25740614596824
O           0.67712112957279    1.71342993324326   -1.05658294769332
H           0.33353031618866    2.40286902575437   -1.62838913948408
O          -0.16420010143245   -2.63591125016183   -2.79795959694036
H           0.50321852514621   -2.59685082553579   -2.09413150998480
H          -0.38744560147187   -1.71616053446238   -2.97923727099137
O          -2.44757411489985    1.51605101812638   -0.16554948273265
H          -3.23935422953309    1.08044127104652    0.15220651294685
H          -1.96267357634869    0.83362810894240   -0.66209822135175
O           1.98272366958293    0.80028994711095    2.79736402455483
H           2.32271945992072    0.47226729558513    1.92605213405962
H           1.89271530691365    0.02187596431740    3.34983464177276
O           2.44065030664141   -0.06971801610083    0.34676048960307
H           1.86796641653161   -0.83549203256759    0.13907998589478
H           2.18931182079156    0.61990048306916   -0.27746501716849
N          -0.20806803913387    1.52153960825929    1.50641309631238
H           0.15145218612417    1.80343302824914    0.56727323509563
H          -0.65660766030181    0.57033871552379    1.35876606181088
H           0.60338469739190    1.39045296054312    2.16831405341274
H          -0.90947832653708    2.18231523659516    1.82485638245127
