    26
        -50.47530411  Gyration_radius:  2.4231305941 Dipole_moment: 2.966
 S          -1.47883861347879   -0.89305758605348   -0.08330426022822
O          -2.53572416261632    0.04163063295041    0.17619872465664
O          -0.63685308917675   -1.13051780900859    1.10561232878108
O          -0.63904016714616   -0.49197576452650   -1.20969833116157
O          -2.11015899620297   -2.27546914662294   -0.45363848043299
H          -1.33747731953919   -2.86065199195901   -0.51238976182010
H          -0.26214528920471    1.06331346897938   -1.53071601761065
O           0.01679569282251    2.00275573557203   -1.65629646834143
H          -0.05957537005171    2.17663306088733   -2.59553621951108
O           1.93436767975500   -1.14486425603550   -0.97476250322240
H           1.92887608868753   -2.05249897848789   -0.65970880625699
H           0.99703282575441   -0.94201592537092   -1.16523210468733
O          -1.54739635393845    2.48970666223071    0.56840978254990
H          -2.10123809650225    1.68936057559249    0.45279808356635
H          -1.11217114602746    2.62085471320510   -0.29012757924197
O           0.31542450320848   -3.33568406791362    0.13877757307448
H           0.28329976484839   -4.06265818563893    0.76371050741111
H           0.11121456635220   -2.51713220495838    0.64525503863110
O           2.24143720581740    1.38996387184526   -0.11568264480044
H           1.65070814151733    1.78863289179372   -0.77772357581752
H           2.35043418589290    0.46172667651186   -0.40646524404381
N           0.41107869263107    1.20299190902845    1.74824179263953
H           1.24987783403906    1.31276293515472    1.08890759090589
H          -0.36227555722336    1.85552268112591    1.40844026271551
H           0.03262879754439    0.23067512133548    1.62015767066844
H           0.65971818223885    1.37999499036443    2.71477265157708
