    26
        -50.47346753  Gyration_radius:  2.46536091364 Dipole_moment: 2.824
 S          -1.55990373406547   -1.02034046317687   -1.24976533710336
O          -1.64183638723036   -0.64666312796781    0.15095395359615
O          -0.52989574008213   -2.01117852283852   -1.50589021591060
O          -1.44703189015083    0.12797432636610   -2.13166962574393
O          -2.93967443958960   -1.71134251083950   -1.59912522538280
H          -2.79596848968590   -1.88597592738228   -2.52183732371651
H          -0.43683305522413    1.26750597741091   -1.72065938855500
O           0.16053680036682    2.00820706963148   -1.42685107677186
H           0.22567235691845    2.60290810192996   -2.17537806134889
O           2.23805045700048    0.93274141949661   -0.01106032115693
H           2.17560461638292   -0.02329531823331   -0.19584660836218
H           1.59375490480191    1.35947719036060   -0.60663462337113
O          -1.34560837542985    1.89414724887494    0.88563163794669
H          -1.66107772901916    0.99869515718660    0.64145426874165
H          -0.90514290267193    2.21720332674333    0.08239716720564
O           0.11457119492985   -1.58682546336741    1.91618430105592
H          -0.65979690568461   -1.38895210680266    1.34865055609697
H           0.80474033158377   -1.85826801413098    1.28867231372057
O           1.73314122585645   -1.73659663927466   -0.31499668529829
H           0.87007193327021   -1.82906353343609   -0.80337653331003
H           2.31881633402450   -2.39307289468818   -0.69476010606822
N           0.75107128180192    0.95271540316158    2.16424009898585
H           1.06698281768484    1.34504544949733    3.04260486924767
H           1.48089121712623    1.03166545067050    1.39615011898435
H           0.51286918927022   -0.08265523647803    2.24507913047940
H          -0.12400501219322    1.43594364729658    1.79583272603348
