    26
        -50.46717436  Gyration_radius:  2.46805232983 Dipole_moment: 1.923
 S          -0.63620443261467   -1.33251506903296   -1.06420657696033
O          -1.36296696454236   -0.69926691256816    0.03018753336752
O           0.79575212268404   -1.25600262895935   -0.88349892418473
O          -1.09316959512526   -0.89019704076908   -2.36209436621532
O          -0.99089719430876   -2.89174050686708   -0.97239573468013
H          -1.83707433312934   -2.96182423933217   -1.40472806206378
H          -0.21734620998423    0.47225812255916   -2.20572117136105
O           0.34058199712468    1.26049843623836   -2.01177190920389
H           0.97345315678925    1.30946452659806   -2.73125217718618
O          -1.82344776493581    1.93970522567764   -0.28890311897424
H          -1.79931012629207    0.97790058239478   -0.11797295975512
H          -1.33913872823741    2.05591945999591   -1.11351970363447
O          -0.21874771033784    3.02872731143503    1.49032651787339
H          -0.91729412297731    2.74782254392809    0.84155858080776
H          -0.55479255708876    2.78481432166347    2.35494751703050
O           0.33326209592312   -0.71960034927482    2.05048651276273
H          -0.43889476983962   -0.74614155608207    1.44665998738075
H           0.76351903602221   -1.59012103669503    1.93487679227535
O           1.26138167995061   -3.03999969062912    1.01597885709148
H           1.23879808258899   -2.46432390373667    0.22529613212655
H           0.60355564098781   -3.71807964670573    0.85023556030199
N           1.41192275419546    1.15479613828999    0.57582120826173
H           1.09004987879786    0.98532440447657   -0.39783426315416
H           0.90613477898446    2.00738844392270    0.94985871184483
H           1.09093907106758    0.32613407455215    1.18499327333258
H           2.41993419437669    1.25905896898741    0.60267177301794
