    26
        -50.44937203  Gyration_radius:  2.46769939637 Dipole_moment: 5.345
 S          -2.15947761147389   -0.83385512695998    0.19485297163183
O          -2.45222800104328   -0.98607151948200    1.58999731367846
O          -0.92833699380453   -1.45558876771748   -0.25952644543929
O          -2.21770405120949    0.57350345950950   -0.23200797765944
O          -3.32362047585153   -1.57091377993264   -0.60093597262108
H          -4.06708073524391   -1.49751913559659   -0.01051852944342
H          -1.29309220772520    1.11771109572610   -1.12430861744351
O           1.11975793174333    2.00068098661204    0.24886740327004
H           1.15116996923306    2.89924325306039    0.57823823887057
O           0.52541391445208   -0.72932146125790   -2.30362832758591
H          -0.04487550130698   -1.18803904179724   -1.64183972193305
H           1.40581612376319   -0.67736062510204   -1.89249135780804
O          -0.46577850284606    1.48230557437177   -1.69677395816800
H          -0.04123275783150    0.59633030282486   -2.09520042081223
H           0.18559717865742    1.78900521932610   -0.97582839606147
O           1.38655411086962   -1.78922415094867    1.17707328615058
H           1.97689473530204   -1.38974240487792    0.52534506225735
H           0.54413111585989   -1.92213737090882    0.71392569909648
O           2.66978901107139   -0.04888512257079   -0.71777155744409
H           2.23465849919741    0.73233401503833   -0.32931469630648
H           3.59968151089017    0.16037719724969   -0.81182971551057
N          -0.00824627610976    0.53206337173153    1.99687311025776
H           0.63075852961271    1.42158759431032    0.99400661858743
H           0.56695490709333   -0.31788147345601    1.98776177580857
H          -0.05011239663562    0.86628009087501    2.95198493177509
H          -0.94539201667429    0.23511781993851    1.73304928261958
