    26
        -50.46198708  Gyration_radius:  2.53065738187 Dipole_moment: 5.636
 S          -0.18151338181699    1.48762345810418    1.49516369121986
O          -1.56439348958801    1.48455067304165    1.02765026158965
O           0.76706455275394    1.51301246153217    0.40476682967716
O           0.05509074447473    0.40946739200587    2.44084156125827
O           0.01355905132308    2.84276705130442    2.28769580743138
H          -0.66154473996354    2.78244757652626    2.95546143602048
H          -0.20725259460658   -1.03255675300865    1.89977259513584
O          -0.45634631045365   -1.93460542837382    1.54161541287104
H          -0.71357189616842   -2.44743787273869    2.31003639167232
O           2.06718607963336   -0.34299957523490   -1.14763480573997
H           2.17954973894651   -1.15010573937440   -0.61420109684443
H           1.79588106704189    0.35242618922299   -0.52704077519174
O           1.89270650382805   -2.66648763606036    0.30612933763449
H           1.66578262276720   -3.39610636071649   -0.27252297072496
H           1.08773464158818   -2.43441388035906    0.80337784678358
O          -0.12701980839178    2.38168768736564   -1.95019805016928
H           0.13993521218950    2.14870258381712   -1.03598477296260
H           0.60058721920663    2.89241821084522   -2.30974044059223
O          -0.17906841434950   -0.23801833268536   -2.49759070050518
H          -0.24529695497163    0.74024952733817   -2.54316885401598
H           0.72633346273773   -0.38585230334048   -2.11329084560054
N          -1.75036366396287   -0.61813552948828   -0.49612778993269
H          -2.69389502478449   -0.85978861431226   -0.77921197539112
H          -1.75140802666671    0.29735953563303    0.04427797071647
H          -1.36208440136029   -1.32563721548149    0.14760823773161
H          -1.09765218944539   -0.50056709558225   -1.37768430206662
