    26
        -50.46361271  Gyration_radius:  2.49265987915 Dipole_moment: 6.622
 S          -1.56053180574531   -1.26425543768232    1.22737354661347
O          -1.19255507448033   -1.18765695008108   -0.17656036550187
O          -2.02309607918705    0.03523702832638    1.71747198815349
O          -0.54498301673416   -1.84172818930697    2.07559629137443
O          -2.80719827729151   -2.24207505904058    1.30600125093977
H          -2.74558276357363   -2.54071396783711    2.20699599050080
H           0.99506029465187   -1.28998271969776    1.67588002341074
O           1.69150195371956    1.47116465189358    0.52755219923222
H           2.36887831025760    1.91967245800644    1.03498268634464
O          -1.25346193270177    0.74936046880373   -2.00959466338703
H          -1.38149506919758   -0.08313962182343   -1.51056242039053
H          -0.33947395387890    0.71864468575569   -2.33008865045060
O           1.53724938916122    0.78478051304121   -2.12064091237037
H           2.34138001659705    0.99488292740459   -2.59669487303409
H           1.66378007968005    1.07748003892293   -1.19663579396509
O           1.80511506455498   -0.96567305029551    1.22821847603159
H           1.71995577787287    0.49507004351087    0.84453573722360
H           1.79686620431317   -1.43873637640940    0.36534230110285
O           1.20545632727744   -1.88627071419450   -1.20940669169402
H           1.33809945591039   -1.08518942866591   -1.73570044466786
H           0.28485373540392   -1.83475508056027   -0.89458750012320
N          -0.97946683073225    1.91822076910013    0.31879317980069
H          -1.35931399480294    2.83947677459162    0.50364637664657
H           0.04543934975460    1.88039948456264    0.49056000824584
H          -1.44876973182941    1.17515402971517    0.94333926317317
H          -1.15770742899967    1.60063272195966   -0.68581697320898
