    26
        -50.46824835  Gyration_radius:  2.38802691651 Dipole_moment: 4.286
 S          -0.16606683426024    1.28294548605946   -0.02578390438104
O          -0.76758985140660    1.72196945123360   -1.25820836160199
O           1.02650979164355    0.31808655137057   -0.37998343280006
O           0.45177425349911    2.33513622259570    0.76981203476077
O          -1.07750642137494    0.48006339302138    0.80321198672239
O          -2.52525069990361   -0.49110454659160   -1.21801146106781
H          -2.58743048669687    0.25480679587479   -1.82151542035995
H          -2.18758378463044   -0.11051457543848   -0.38548160438743
O           2.11844078746941   -0.99259961603694    1.83803272892911
H           1.36197021771971   -1.59985436572704    1.64426770511526
H           2.29675135334793   -0.56482165353008    0.99026731330761
O          -0.18877724095471   -2.04765727363769    1.09524596335193
H          -0.17023761089403   -2.41209835972297    0.20494396976954
H          -0.63321175141610   -1.18088553840444    1.01173240325479
O           0.06435067419811    0.58796324252711   -3.53320807883870
H           0.75545524302585    1.12756124943481   -3.91843077722372
H          -0.27691932468096    1.09159455119157   -2.76572571427172
O          -0.12718892468698   -1.46855024988750   -1.80519045637107
H           0.04526839306782   -1.03299639698163   -2.65916558821348
H           0.63192204503052   -0.42691366192359   -0.94492698314075
H          -1.08495764985567   -1.28457809930725   -1.63787431534160
N           0.61497918523238    0.88740607993923    2.84665693072883
H           1.32042628806305    0.11795434657691    2.57536719088726
H          -0.32703769031711    0.49622889298069    2.76585170946403
H           0.79143197256196    1.28335020112855    3.76423792358185
H           0.64047806627382    1.62750787318162    2.04387823816184
