    26
        -50.46434229  Gyration_radius:  2.50755056672 Dipole_moment: 1.209
 S          -0.16214224295847   -1.94081357146213    0.47541542681712
O          -1.39720744156438   -1.29991855693791    0.92191304171130
O           0.98376551143131   -1.06664724146382    0.64661428853053
O          -0.28656657347960   -2.49098341489328   -0.85673734740180
O           0.07982770978569   -3.16563493019284    1.44706085171191
H          -0.59895817220104   -3.77045109832640    1.16752085701690
H          -0.55064881385513   -1.45570702730319   -2.09642593877660
O          -0.67536861357832   -0.75156925174378   -2.77772663940319
H          -0.50153621226654   -1.16462470899917   -3.62461955245196
O          -2.56689672948382    0.38136029416103   -0.99215021615305
H          -2.14134442260061    0.12465241172246   -1.81863517284640
H          -2.42972490339604   -0.36445280287564   -0.39363465793609
O           0.65089245139772    0.91166936580754   -1.08276203561072
H           0.20977353772169    0.53412318537089   -1.86307401165312
H           0.89179840557333    0.13714641035128   -0.53083702798733
O           1.41009503863677    1.04442146994793    2.34100939637497
H           1.96572572227505    1.60519435414367    1.76273496543270
H           1.45251316789205    0.15540868592539    1.94724118125600
O           2.58722834785856    2.33582505564017    0.25453399279888
H           1.93617402831438    1.98609765090441   -0.37709267138327
H           3.44350266286617    2.01757808947510   -0.03522696230109
N          -0.88112411113791    1.27918189426628    1.11242552496025
H          -0.52772234707350    1.41181345431283    0.13977981618886
H          -1.20415652855595    0.27567125972985    1.14918435353051
H          -0.04202383499451    1.35689586915236    1.76825222635383
H          -1.64587563661573    1.91376313320823    1.31523630113854
