    26
        -50.46339919  Gyration_radius:  2.5275158525 Dipole_moment: 7.840
 S           0.00686065104845    1.03811833066861    1.20163158165866
O          -1.12233884183774    1.57253814859907    0.49716170402999
O           1.27299848485785    1.30641750003727    0.48129440976202
O          -0.10253932033989   -0.39587499845482    1.45759988807269
O           0.11603510867939    1.75397295353260    2.58300118510027
H           0.94886282901879    1.39692073583010    2.94101877995648
H           0.57279225733787   -1.53972814002911    0.53126935543451
O           0.97167904137475   -2.16019580454724   -0.13093676490513
H           1.73037513640856   -2.55148464679601    0.30468565315709
O          -2.08313087530420   -1.99435572103887    0.51309721098074
H          -1.49713015884864   -2.60890294720092    0.06425663674918
H          -1.50012764011456   -1.40543526960514    1.02478299880572
O           2.63329865587637    0.87665814523775    2.67328392214028
H           2.32799421569181    0.97833983945740    1.74807665886256
H           3.26755041376716    1.57919899110495    2.83215509888616
O          -2.87970170222147    0.14436719460606   -0.95438355555161
H          -2.80270911517916   -0.71575842033460   -0.49767451095259
H          -2.41118497597046    0.77082581903741   -0.37169307429597
O          -1.25214096226423    0.45156181404052   -2.91948572059752
H          -1.38802273602946    1.37849223435395   -3.12392730561534
H          -1.94598223356493    0.24442502099261   -2.21447413850577
N           1.03970177484227   -0.02365887126526   -1.74881433952231
H           0.10245950864990    0.16813888404294   -2.24020309069362
H           1.03812000216924   -0.98465479801460   -1.33669928638489
H           1.81091384314540    0.09068801085746   -2.39842707375025
H           1.14536662878543    0.62938600484715   -0.91659623281370
