    26
        -50.47112914  Gyration_radius:  2.40439425846 Dipole_moment: 2.740
 S          -1.52642309861184   -0.90071360925032   -0.22448582028568
O          -1.90711817521830    0.07672234035691    0.78031130515171
O          -0.66693448378085   -1.94320494625154    0.29940008058355
O          -0.96997283409417   -0.26259743314772   -1.40947435509367
O          -2.84761398609609   -1.61815204483067   -0.70389039402217
H          -3.26695490787420   -0.94230396331873   -1.22654030805312
H           0.06252879636973    1.00925411010138   -0.99567911028801
O           0.60519382729078    1.74116768114093   -0.63532396504622
H           0.00654687082175    2.49837271598445   -0.68827838675606
O           0.20630037428558    1.20662116532181    1.99465571558373
H          -0.67199087380074    0.83359079116215    1.78899159076602
H           0.47589515004281    1.63029379325502    1.15283057781986
O          -1.95327437399975    2.65360536979725   -0.07263923705976
H          -2.01426058520881    1.71570062311910    0.18744974154328
H          -2.31512309545854    3.15525214831300    0.65963669762848
O           1.06483142503305   -1.87275712929705   -1.96249221094047
H           0.29974778044657   -1.26582830625847   -1.94043528852673
H           0.80878832937198   -2.59966631506746   -1.38895375418923
O           2.69481396110972   -0.16043458687005   -0.70209456275044
H           2.26633026553481   -0.79206424839557   -1.32305402594719
H           2.23437662957508    0.68154303185086   -0.83015800183987
N           1.50510885797619   -0.99179479987393    1.47269193767815
H           2.12668608519565   -0.69426987578863    0.64921637375239
H           0.68330099735199   -1.50940507195567    1.07369553080678
H           2.00641207082990   -1.54862024393453    2.15491413260267
H           1.09280495297358   -0.10031119623509    1.88970572692854
