    26
        -50.46475434  Gyration_radius:  2.61580048747 Dipole_moment: 1.392
 S          -1.10094323646074   -1.88808702826727    0.39648423175479
O          -2.06738621884252   -0.82162472756463    0.20793508575218
O           0.12680491252052   -1.41394612331384    1.02178482554225
O          -0.83264060334854   -2.65771043518533   -0.80092043794932
O          -1.77299482399734   -2.88436653791710    1.43395377519173
H          -1.14384322546608   -3.59731889732999    1.47684891720317
H           0.15048517987548   -1.72620844050519   -1.64836836683107
O           0.67279238708160   -1.10516437912192   -2.21912759591274
H           0.82786819672595   -1.57829212094758   -3.03899727314927
O          -0.95818336167517    0.96931419919666   -1.47330215746923
H          -1.60041760948943    0.40049311788144   -1.01050346552556
H          -0.38841174553771    0.34071915777178   -1.94712785451600
O          -2.24867144447439    0.97466632640869    2.17650866364042
H          -3.15875803735604    1.25484238941161    2.27952909214137
H          -2.26049189570550    0.24901782804425    1.51716687947664
O           2.74334748049900    1.95548099667061    0.89797709435404
H           2.75988786824507    1.62795391116794   -0.02689825484795
H           3.35476586730663    1.40319020317495    1.38744723166813
O           2.38951936824415    0.94997428792272   -1.57759900052648
H           1.90309439001077    0.11202839722229   -1.66838963122735
H           1.90700482810541    1.58964297422511   -2.10564916325715
N           0.15260678073727    1.19989439816468    0.95779387551297
H           1.08284954768693    1.64213210418503    1.10319490129968
H          -0.19613993072336    1.34924546443007   -0.01967136735899
H           0.23219981936420    0.14972373818279    1.06272139248124
H          -0.57434449332753    1.50439920609905    1.61720860255788
