    26
        -50.46942310  Gyration_radius:  2.44381306479 Dipole_moment: 5.029
 S          -0.33256773156572    1.11866323127655   -0.06343405701607
O           0.90214406921834    0.43244423363291   -0.47354355629431
O          -1.34484272516424    0.15518826245454    0.35965964618376
O          -0.03573168803684    2.07484565468769    0.98986140701787
O          -0.87479118169582    1.86936041133834   -1.29451358245418
O          -3.53790058399035   -0.31558300736976   -1.09675496668475
H          -2.82045646864970   -0.21368880669089   -0.43960755461913
H          -4.06145838190276    0.48570562856223   -1.04544735767824
O           3.23726435312666    0.77704619994097    0.69101908885078
H           2.45305062981111    0.63024167515351    0.11291407449820
H           3.52293661609602    1.67584745669880    0.51821707358073
O           0.03034954669240   -1.73256458241788    1.52020088213436
H          -0.65290793510545   -1.13521402044365    1.13890123832014
H           0.37577782583691   -2.20173232680903    0.75127531632624
O           0.43195305379280   -1.93418534148225   -1.41773287229710
H           1.14397508799753   -2.16672082658756   -2.01624507883794
H           0.65724425431528   -1.04589811760541   -1.05206847073756
O          -1.37807925311819   -0.21470185590868   -2.69695590059251
H          -2.27581897130476   -0.37347915608081   -2.33750382105227
H          -1.05650412614524    1.11998098489800   -1.95438026324467
H          -0.83033396054543   -0.93622872677037   -2.33646674190461
N           1.29841050363911    0.38356410760150    2.46722024947420
H           0.69930528811171    1.14072523429717    2.01442256200767
H           2.23752834904774    0.47684080557561    2.00970579276236
H           1.33967610124387    0.47916495737051    3.47649833539096
H           0.87177731830268   -0.54962204534152    2.17475855686327
