    26
        -50.46891648  Gyration_radius:  2.45600037092 Dipole_moment: 4.516
 S           1.69886308715649   -1.01108867084440   -0.65239759910133
O           1.73151617321632    0.30075336863622   -1.24647157732991
O           0.57824276619613   -1.82483691172134   -1.10769657786293
O           1.76323018782752   -0.98755573751180    0.80698984781953
O           3.00686830328469   -1.76114006402327   -1.13068516002785
H           2.88702400556996   -2.62090617619437   -0.74209825212380
H           0.29750367154997   -1.00660813756097    1.49195202059905
O          -0.56218232112874   -0.89549518153233    1.96915048509085
H          -0.38866444654912   -1.14357649484022    2.87875689255222
O          -2.91474158839365   -0.39465752183403    0.69814441940307
H          -2.94900571313588    0.54262172351638    0.91117911634120
H          -2.17802865743611   -0.75430275383799    1.22478525912302
O           2.11574860133632    1.66800176696498    1.15527713945612
H           2.09553689251055    0.69429734568381    1.17125552486082
H           2.35803561384561    1.88073800469787    0.24937990148775
O          -0.47443852371300    1.79228828697373   -1.48358714191477
H           0.42465609166019    1.41353133566869   -1.54007754130053
H          -0.60463802491380    1.96460045242415   -0.52169004606223
O          -0.58361688560492    1.79511537928062    1.19132350370340
H           0.37082262681641    1.98983874923912    1.29458989903283
H          -0.66839660269496    0.89179266601687    1.53481560553208
N          -1.62540318363707   -0.52061248957826   -1.65155609304436
H          -2.25813564337583   -0.57445261482085   -0.81736567595084
H          -2.09863143925675   -0.80499613003608   -2.50120552199181
H          -1.24903619170648    0.49089669185833   -1.70914907401502
H          -0.77312879940583   -1.12424689663825   -1.47361937429221
