    26
        -50.47074749  Gyration_radius:  2.4995224136 Dipole_moment: 1.702
 S          -1.67766306471685   -0.39985040946097   -0.96308070646029
O          -1.98626663254375    0.47370766888192    0.16788840219692
O          -1.39565755316614   -1.75718225686406   -0.55990283986919
O          -0.64902656161382    0.17815613738548   -1.81116111718908
O          -2.99422511116418   -0.46585059463277   -1.83914679788359
H          -3.13324164650404    0.44307540221544   -2.08458279219641
H           0.96004645882036   -0.20327059462243   -1.49857579959941
O           1.81432214146005   -0.52557303324752   -1.13884418175037
H           1.70463394966292   -1.49799770748767   -1.10036749827828
O          -0.69877841565248   -0.94023814542975    1.96231170390955
H          -0.80771263493634   -1.77868068497023    1.49915884932817
H          -1.27909194935947   -0.33225724985946    1.45507432275886
O          -0.59791446857882    2.59770529236293   -0.54114460329809
H          -1.20814075599874    1.92643614859101   -0.17154061501427
H          -0.23366519297702    2.15657020311847   -1.31752589595655
O           1.11649285374441    2.76551886642569    1.45296713780626
H           0.52856777018242    2.81025705935704    0.65453139803876
H           0.59148480024662    3.10590907124963    2.17916861317874
O           0.90639016668108   -3.03167119301492   -0.84725607408199
H           0.82322202621426   -3.65465558418325   -1.57059618482729
H           0.01812003984233   -2.62840663355109   -0.73609208766726
N           1.65610312842053    0.14966878493340    1.37885505296368
H           1.80191744862130   -0.09732824841292    0.34035102119483
H           2.44847364254136   -0.15901185129866    1.93099905925179
H           1.52596643232213    1.19097868974305    1.46218762561943
H           0.76564313843188   -0.32600911721922    1.69632400780948
