    26
        -50.47315844  Gyration_radius:  2.38450257687 Dipole_moment: 0.900
 S          -1.78054848940215   -0.42142716236777   -0.11331796228924
O          -1.39987058887720    0.54411524991821    0.90434740431899
O          -2.69937922349441    0.08076069383194   -1.09060182848505
O          -2.54238928801976   -1.60164411539789    0.65359878220705
O          -0.59755193214121   -1.06138052603152   -0.69325515856184
H           1.14008137473986   -0.98801235836108   -1.24583758199563
H          -3.45303528402684   -1.40298867692057    0.46226627883993
O           1.94967849701478   -0.54492226134268   -1.55080395863409
H           1.66453805400595   -0.00399213089590   -2.29460107706162
O          -0.43742451738303    0.96866664451820   -2.45866114335795
H          -1.31169862598093    1.19552172265003   -2.78614645863028
H          -0.59056141685611    0.18689792322285   -1.89891242105901
O           0.05308529544362    2.47458851094381   -0.24792985261858
H          -0.59832386445495    1.95736982409142    0.26561037929077
H          -0.06203731194508    2.16072998804765   -1.16563210440162
O           0.68253295322578   -0.17541574459938    2.40498544083923
H          -0.15816799644705    0.16012562121223    2.03076644101600
H           0.65004201813189   -1.13695978640746    2.22129429771215
O           0.06760807518102   -2.58399620243680    1.39363152512850
H          -0.76952077779108   -2.91276788529713    1.72757135188162
H          -0.15133967804706   -2.13076084314398    0.55804648608859
N           2.10468856632765    1.05541778075281    0.58964578796900
H           2.23245720992620    0.39663239073100   -0.21812592770276
H           1.38126225931566    1.77470859483926    0.28046221839907
H           1.64844756053011    0.52115813682720    1.40232211604360
H           2.97742711107095    1.48757461161198    0.86927698503666
