    26
        -50.47250301  Gyration_radius:  2.48715882869 Dipole_moment: 2.887
 S          -2.06068778124195   -0.67039202359663   -0.66850988155514
O          -2.46146744433841   -0.20167792363606    0.65247869151296
O          -0.79113852162971   -1.37081332509639   -0.63355575322559
O          -2.11025694074376    0.38728521984720   -1.65968316856966
O          -3.14177223295181   -1.74059982926862   -1.11137862430630
H          -3.90010404606622   -1.18511071884325   -1.25572279076117
H          -0.93690799029536    1.45022119491650   -1.47718655203347
O          -0.16372651005445    2.06700976196718   -1.38833746782197
H          -0.44411567731367    2.89827652400800   -1.77399682620016
O           1.22611167604960   -0.26895677284831   -1.99549395774166
H           0.47180981338134   -0.78180268859310   -1.64175266954904
H           0.89665466472516    0.64022908975971   -2.04687196561000
O           1.14562846736805    1.81304969669565    0.99733250679007
H           0.67930336919730    2.00810500110728    0.16248847542778
H           1.85801145596196    1.19429449638073    0.75497270755061
O           0.96825632980000   -1.99833583653540    1.31508806457878
H           1.74188025842081   -1.51941907691873    0.96544649136144
H           0.34542439904756   -2.04478850936566    0.56624980742851
O           2.74073800310333   -0.25575671678683    0.12385740978807
H           2.22625807157955   -0.29165881860471   -0.73422936945968
H           3.66278262303311   -0.36750194859829   -0.10816069512275
N          -0.39689450351386    0.05528596435878    2.22338055490925
H           0.16190341586509   -0.83341783707251    2.04566794935647
H          -1.28380917913357   -0.02753196741107    1.64667101210387
H          -0.61191647646853    0.18376389910316    3.20526492658700
H           0.17803472623307    0.86024318504156    1.83598113457258
