    26
        -50.46846670  Gyration_radius:  2.51145986504 Dipole_moment: 4.649
 S          -0.44299364488802   -1.24720954076326    0.60449447754783
O           0.26931951847490   -2.17634310521071    1.44547059552387
O          -0.40656971002589   -1.57055629429050   -0.80985931817547
O          -0.02656982981681    0.14506337200758    0.83009947727245
O          -1.97358002804175   -1.28141527501554    0.99521955013196
H          -1.99250048687893   -1.45694738447580    1.96126698681054
H          -1.21929546325623    1.00928790341089    0.08432258377227
O          -1.85573635323453    1.46682161617122   -0.51247240321586
H          -2.69190772966479    1.01927411793577   -0.37122505563573
O           2.39057392171266   -0.72613277230266   -0.03944929049188
H           2.41313486087769   -1.67291252839827    0.10971099817054
H           1.59277631230911   -0.41791100926008    0.41531819387482
O           0.93846721211206    2.65947001626853    0.25316860880397
H           0.72831944075775    1.81022516111704    0.67139911829810
H           0.09011131107175    3.06605353259800    0.06088982078794
O          -1.38515548481733   -2.00150946729343    3.46154996981221
H          -0.56991580597440   -2.12581467726783    2.93072639630717
H          -1.65176290772298   -2.87603572248969    3.75415067304029
O           2.18477444215455    1.38143391308268   -1.76304311311320
H           1.92103176054989    2.02023719970425   -1.06691844407677
H           2.52646777853722    0.61492362562758   -1.26959940488075
N          -0.17488236165249    0.48162821817659   -2.38500264714756
H          -0.88073777087982    1.08558545528173   -1.91958841347996
H           0.81891715981055    0.88454136979929   -2.22635958538946
H          -0.22490992740637   -0.43525351944669   -1.84577797673044
H          -0.37737621410093    0.34349580503596   -3.36849179781870
