    26
        -50.46961750  Gyration_radius:  2.4423906876 Dipole_moment: 6.027
 S          -0.22313984490053    1.20790588829616    1.49932744909530
O          -0.60437825071722   -0.12642165486476    1.92800379275940
O          -0.67902801530577    1.52225491021933    0.15474695345165
O           1.19886647558945    1.44799762761517    1.66285369384520
O          -0.97389460379933    2.21347840162729    2.45478130138484
H          -0.69473644571382    1.89638307512877    3.30645451420384
H           2.27181522170033    0.74365844763389    0.72193775721553
O           2.86061795602433    0.28879250471838    0.06253221411347
H           3.75882664388499    0.42982967510233    0.36475093465875
O          -2.52186356374291   -1.78472101735226    0.99098120470455
H          -2.01922867431968   -2.59211765752148    0.86197794433775
H          -1.92165681649822   -1.17366808967581    1.45566018729323
O          -2.36052500444796   -0.19595923443627   -1.20376946423096
H          -1.92831663892695    0.53670146670471   -0.73657040285988
H          -2.64364980900752   -0.80941465722980   -0.49740331858609
O          -0.19726537230500   -1.29979733657066   -2.19457885703548
H           0.13755280450391   -1.69962054767211   -1.36348548123412
H          -1.11264857291182   -0.98167487361917   -1.96798433763141
O           0.81553836916237   -1.69060681012090    0.26229106325400
H           1.68455067136162   -1.27223056967921    0.22799743541037
H           0.30464748682493   -1.18703553106461    0.92264119327030
N           0.99086194927043    0.93104882747823   -1.80696596557847
H           0.52773229852473   -0.02800607355329   -2.11698177443338
H           1.88776892443288    0.73089232451891   -1.33402813979605
H           1.10291347963377    1.57804577448847   -2.57866989307236
H           0.33863935172029    1.31428510985291   -1.07650001451789
