    26
        -50.47115250  Gyration_radius:  2.41953809749 Dipole_moment: 2.758
 S           0.23888916861394    0.54919163008438   -0.91026397565512
O           0.82268754892569   -0.04567672945371   -2.21928876555176
O          -0.87567051443075    1.42447068638886   -1.21248123854327
O          -0.20139282926888   -0.57885326425005   -0.08124592041847
O           1.35253107888506    1.25124867443412   -0.27608494487668
O          -2.62834051190609   -0.67126432592785   -1.10217671425536
H          -2.62656357631512    0.25615435495670   -1.36932312027683
H          -1.80078407514776   -0.76855428118672   -0.58625862482542
O           3.04838764858460   -0.71249650604534    0.36473517698809
H           2.52083620725753    0.05402175314611    0.06447491416466
H           3.27645952013403   -1.19900597618685   -0.42849768068362
O           1.08347491884453   -1.28868858102092    2.14757519102252
H           1.97108579535132   -1.27754995045616    1.74257567955776
H           0.48994402781457   -1.29430153271608    1.37112909862903
O          -1.86310238745849    1.54024430795694    1.23284458796252
H          -1.55034552651778    1.63873644369804    0.30421876888171
H          -2.43785530770536    0.77013147870181    1.23086758477373
O          -1.11843901082545   -1.53880791183200   -3.11276303890843
H          -1.83734722754586   -1.29853837958768   -2.47922506041099
H           0.10611356746545   -0.58293368526379   -2.65556572057630
H          -0.91632310391709   -2.46326600840497   -2.95366474223360
N           0.59459245228119    1.26915336816754    2.22581038787397
H           0.95470587116984    1.89370610476699    2.93885004664010
H           0.79929282514853    0.23254931815578    2.42326614904249
H          -0.43542344323786    1.39991238735991    2.05964833273201
H           1.03258691379160    1.44041666452886    1.28084364895199
