    26
        -50.46862427  Gyration_radius:  2.56419787555 Dipole_moment: 2.408
 S          -1.77834712568228   -0.62922767428087   -0.96349929685915
O          -2.21095185417015    0.70271086807114   -0.62916248157967
O          -1.17856693965977   -1.32026707664424    0.18299895752841
O          -0.91013923624425   -0.69103569408552   -2.12837236853170
O          -3.08257037996794   -1.44918218690622   -1.33439913922815
H          -2.76133855870758   -2.26969277370893   -1.69764200222349
H           0.04633461816264    0.59141446301062   -1.74320203870073
O           0.54875674833292    1.35026455573210   -1.36450751255686
H           0.05103083269154    2.13118127405033   -1.61562456901197
O           2.58097540941216    0.04874083352488    2.15198983890271
H           2.78336941985759   -0.80726986785262    2.53201142014599
H           2.84577857832420   -0.00669710083583    1.19830243692744
O          -2.10342137831734    2.10614244284793    1.64389614408956
H          -2.25529675830415    1.68853907184067    0.77075105348035
H          -2.92110422809306    2.00672470889269    2.13277037126749
O           1.07433327060979   -2.20065817428944   -0.98489327925192
H           0.31473007420574   -2.05186505578557   -0.39420779636140
H           0.74741815917966   -1.90839707147451   -1.84394544564607
O           2.81949540504761   -0.20072885871713   -0.46531236462146
H           2.34582750889457    0.49501849416867   -0.93423657827354
H           2.31730874936254   -1.02343406274487   -0.64985699192486
N           0.15497046304313    0.69422179238614    1.25676905113210
H          -0.51046648732777    1.33183295243362    1.72509993211402
H           0.41264749434059    1.10578836987665    0.33415322283096
H           1.02957420944712    0.49223736117629    1.80042844415588
H          -0.36034797444604   -0.18636158068449    1.01969098220073
