    26
        -50.46933818  Gyration_radius:  2.55084363307 Dipole_moment: 4.245
 S          -0.74428179862529   -1.17022239495317   -1.38516884412783
O           0.56963735199899   -0.76077745535503   -1.81790963994401
O          -1.44011627725484   -0.10278685973824   -0.65906395944613
O          -0.76931357888890   -2.41147845907302   -0.63513750570120
O          -1.59331356151838   -1.42992882099876   -2.69741171462033
H          -2.32840924056369   -1.94786816630184   -2.38540219602522
H           0.09150189994790   -2.37560864817377    0.71518438719291
O           0.65890215772320   -2.32945948741039    1.52846635490153
H           0.83564050124879   -3.23843545284358    1.77679714458211
O          -0.41072995832390    1.76488779080193   -2.27665782150555
H          -1.02478845508863    1.21093175474351   -1.76543207671577
H           0.28534916270775    1.14416097432249   -2.52491238106536
O           0.28188008248659    3.47476507540846   -0.32844888849284
H          -0.31621744069864    4.22199235719375   -0.35950069438629
H           0.10119552880343    2.94504860601165   -1.14012212654659
O          -0.44280732858999   -0.37322613752209    3.10814960705679
H          -1.37827174185046   -0.58253978408570    3.09884553595812
H           0.00510593254591   -1.11684263198647    2.66074690238461
O           2.27619165983796   -0.48909123346155    0.22350725150221
H           1.99445655081276   -1.24226895906757    0.76622229282487
H           1.86136040537338   -0.63234460960178   -0.64901625013902
N           0.29914242684936    1.11309818494550    0.96858581841375
H          -0.43153937008775    0.67256382764829    0.35965021848027
H           0.34508683570841    2.12432772206940    0.73959409208058
H           0.06139140284338    0.89372453148385    1.95074651054520
H           1.21294688259740    0.63737828594148    0.72768799280698
