    26
        -50.46361048  Gyration_radius:  2.45711350461 Dipole_moment: 5.319
 S           0.03343060262303   -2.08982148600122   -0.61146193961081
O           0.31191962161327   -3.04527639299669    0.43710736046877
O          -0.14437609268493   -2.62952244287392   -1.92550771444271
O           1.41433179735407   -1.20547458404271   -0.70951628994302
O          -0.95259082081305   -1.09296478809842   -0.21474150472718
H          -0.91883057035038   -0.46778965913093   -1.75541386726376
H           2.04156843712790   -1.87304989679647   -0.96979649857574
O          -0.74132168842726   -0.03408077323827   -2.61401831828118
H          -0.39484251996059   -0.75193988264474   -3.15111159826181
O          -1.81147157139917    1.37314473551642    0.46507101362369
H          -1.36691243899370    1.86237083459431   -0.24883676602146
H          -1.75884671544606    0.44016494667890    0.19024282224766
O          -0.12550489228203    2.30367809191028   -1.55197726684413
H          -0.24721182627859    3.00546468499122   -2.19252445181286
H          -0.29302429834506    1.45814340963698   -2.03270047148258
O          -0.07975606412237   -1.64674082983675    2.57286068138687
H          -1.00386931142804   -1.84139517769192    2.74290543199676
H           0.14312557844678   -2.19488902821808    1.77476790881087
O           1.86151860905957    1.37692143223478    0.10630744331846
H           1.27025231159630    1.86231200483857   -0.49680548668787
H           1.86017299890699    0.46551508044261   -0.22840162643119
N           0.18836785587223    0.95733352693461    2.11265118235759
H           0.97855520271050    1.15069129994004    1.43340859525287
H           0.13888756313089   -0.08375892261880    2.30638904917498
H           0.29795694509060    1.48130009466496    2.97329207059249
H          -0.70152870300833    1.21966372180311    1.58781025115388
