    26
        -50.46813139  Gyration_radius:  2.44401173149 Dipole_moment: 7.937
 S           0.10297783375174   -0.72853425071656   -1.05647586140725
O          -0.84487791154438   -0.65888455435408    0.08218301912306
O           1.27002360764708   -1.50055780819071   -0.69633037928077
O           0.46267445526520    0.62885371424478   -1.46468673311091
O          -0.62267100532314   -1.42787162952564   -2.21250061991639
H          -1.55074615287389   -1.02760754589795   -2.20162790201047
H           1.32954281367149    1.16267574816616   -0.24137042596911
O           1.81248138881296    1.42622774971631    0.58841025942683
H           2.73203046049512    1.50891809751581    0.33082469295937
O          -2.86583075369749   -0.26991695637010   -1.84874946402040
H          -2.88147823208108   -0.43738832766118   -0.90088050334260
H          -2.60995212507278    0.68478988276140   -1.94904792443858
O          -1.75682028505134    2.12015743424349   -1.79288203560395
H          -1.82004635874193    2.37628897634798   -0.85851778960474
H          -0.87426740169558    1.71380970997661   -1.87368378749748
O           2.07327575007527   -2.73088386095047    1.46297044549418
H           1.75956576942854   -2.44917170461405    0.57083073815967
H           3.00910241634726   -2.91427196242407    1.36502819960339
O          -1.15860946728907    1.90999379829625    0.91856723613461
H          -1.13281772645291    0.98635570240803    0.60991906040288
H          -0.25149375486223    2.22608430705814    0.88173574867206
N           0.76878263834880   -0.51722412640576    2.10076373717606
H           1.31426954399199    0.28515078743093    1.70228084653636
H          -0.00148145498061   -0.67612017387806    1.37493293575106
H           1.35491934211953   -1.38867602056403    2.09455827297991
H           0.38144656964125   -0.30219698662788    3.01374823374808
