    26
        -50.46501454  Gyration_radius:  2.55428199081 Dipole_moment: 4.877
 S           1.23921696661213   -1.90325522973144   -0.20780893815443
O           1.50812542154652   -0.56374748111457   -0.68546284851629
O          -0.07169411563656   -2.38928104437598   -0.62209698573762
O           1.42355293480864   -2.04351431496061    1.22714331479704
O           2.30340408132362   -2.84418741270822   -0.90156069518893
H           2.04982454485090   -3.70510734010744   -0.58537436776693
H           0.49376505272349   -1.07372743287163    2.05433770318099
O          -0.13906383692004   -0.44243607602824    2.49840797433255
H          -0.12034942471911   -0.66418790716996    3.43072242636371
O           1.33862918010960    1.47494824408907    1.07449726860194
H           1.56000207661614    0.80445986782475    0.40283576956999
H           0.85364861077895    0.98822822663986    1.75547882186366
O           0.16405268503577    0.47107437829601   -2.73303616215123
H           0.66153266278259    0.00316072871662   -2.03015496229702
H           0.72607321127063    1.19930111949816   -3.00556927753183
O          -0.35209011670567    3.17310565087837   -0.07002607173250
H           0.34219110448675    2.59209916584912    0.32556489484891
H          -0.50264597884880    3.88001382254834    0.55740448231594
O          -1.88256795278714    1.33863403159441   -1.26694799529094
H          -1.43112503822336    2.09970163606161   -0.84396486505218
H          -1.24421960396013    1.02754809538297   -1.95046176972790
N          -1.80169427661881   -0.68529826439772    0.32906356612760
H          -1.86520826741811    0.19578518926712   -0.32178451733332
H          -1.16676542475396   -1.39970218530183   -0.13571529025202
H          -1.36251549205695   -0.45010608171828    1.23450411505820
H          -2.72407900431590   -1.08350938614246    0.47000440968960
