    26
        -50.44706810  Gyration_radius:  2.48424067005 Dipole_moment: 6.068
 S           0.43750076110926   -0.84535900944883   -1.76273916809570
O           0.87965845429184   -1.25572496581665   -0.44038192104643
O           1.43943385696105   -0.24312772901275   -2.58516280560398
O          -0.78033785847402   -0.01391090249119   -1.65359408072354
O          -0.03410010184248   -2.17766313838295   -2.48352463125858
H          -0.44025449451935   -2.69394367069393   -1.79272583548873
H          -1.42261992191921    0.14472214066294   -0.46320558838708
O          -0.08801422324165    1.33312605573666    1.93195898296477
H          -0.28825659931967    2.22184983654526    2.22889186841437
O           0.58585923840370    2.31316853257866   -2.43964961719968
H          -0.34312172538173    2.06859156985587   -2.40431424771030
H           1.03192293326038    1.49577325591497   -2.72257820702099
O          -1.89829268614118    0.26730121998714    0.50735251411207
H          -2.02211084845185   -0.67672627083062    0.87704927543459
H          -1.19035184190570    0.72777879019634    1.10741538359977
O           0.48014630879829   -1.45343844014893    2.19349172370116
H           0.80423286716082   -1.48503647780297    1.27387546859483
H           0.44146569538697   -0.51293828601959    2.41143749399581
O          -1.95531276256144   -2.07516190983705    1.52797348767708
H          -1.01033610357714   -1.99690247337402    1.84704923532006
H          -2.49657698325292   -2.24331695906730    2.30104736504095
N           1.64378885916711    1.45301849673475    0.06405113263095
H           1.65905128374619    0.48425805255321   -0.24695277874111
H           1.30546173727225    2.00228384725264   -0.73132607000217
H           0.66409129465854    1.42451266563381    1.20292063048642
H           2.59707284090037    1.73686576898839    0.25164036977198
