    26
        -50.46015060  Gyration_radius:  2.56795214884 Dipole_moment: 6.565
 S           0.19980300558433    1.20343292484375    0.22972314531376
O           0.32199189603328    1.97581291835307   -0.99887339479964
O           0.94973812411928   -0.06222939433051    0.11223488398342
O          -1.17821420748708    0.94163537412331    0.61554481570725
O           0.88461903510007    2.02856500255186    1.34716501858058
H           0.40297912280478    1.82126945574159    2.20508009206899
H          -1.58260628749065    0.02315666105342   -0.82868107708165
O          -1.66687224524713   -0.71463915258637   -1.46092551581666
H          -1.52007894592036   -1.51409199806298   -0.94091317488700
O          -0.28500741876623   -0.72371380396492   -3.72474288935529
H          -0.75621847016598   -0.14826934879951   -4.33005349490291
H          -0.85474043963379   -0.78569287480197   -2.91950218653643
O           0.27567365765021   -1.28210216911395    3.54456719914211
H           1.22551838414481   -1.34228801863860    3.43160246668970
H          -0.12276496964851   -1.66672299796228    2.73532651603508
O          -0.61225249886002    1.25184673867941    3.27140305518588
H          -1.27358371277793    1.13069410197079    2.57593581731397
H          -0.31364710369250    0.35171465868472    3.53133942871373
O          -0.78190521790141   -1.78498054039433    1.10686417517497
H          -0.05863847494930   -1.24163150324012    0.72229786173723
H          -1.50942065558290   -1.16343750552113    1.22051834854502
N           1.69610125663896    0.32938912691364   -2.33072416683717
H           1.03943351125853   -0.14234610506505   -3.01176017791983
H           1.68806585653479   -0.18799109989734   -1.42337507497782
H           2.62710053723847    0.48114472524041   -2.70092946766967
H           1.20492625088814    1.22147482421128   -1.97912220343431
