    26
        -50.47063038  Gyration_radius:  2.42500118685 Dipole_moment: 5.203
 S          -0.31186677933065   -1.64229491551288   -1.17362126304944
O          -0.67588763407447   -1.99897251437658    0.17163933406895
O           1.12118553906094   -1.55304169906582   -1.40318447391520
O          -0.99421557187989   -0.42400675727071   -1.62406920418057
O          -0.81155856162428   -2.80454287304685   -2.12606825485557
H          -0.11178033889705   -2.82852581410761   -2.76956449240579
H          -1.74886807010937    0.61291700558405   -0.64318034960246
O          -2.11325838706761    1.33770024973271   -0.07196416101868
H          -2.91318970993981    1.63704452711871   -0.50616277320764
O          -1.39975770334594   -0.29082130043035    2.12361628234211
H          -1.20229159207180   -1.02817664413484    1.51555038420998
H          -1.89363394163132    0.34179117048398    1.58663119188962
O           1.92562388489708   -1.58281696658760    1.13070464859772
H           1.76243107373719   -1.57173336663267    0.16813795925759
H           1.24510685734561   -2.16898042125792    1.47494677338006
O           1.06318080697086    0.67882646783026    2.24163922413083
H           1.55031517642343   -0.10224567085449    1.88879766320009
H           0.15497106396549    0.33179264331141    2.42028415231402
O           1.13183144361049    1.07194365642519   -1.98423331709380
H           0.26811888880149    0.60731447330235   -2.03539833860608
H           1.75111935847104    0.33937041132805   -1.87357184038341
N           0.44640658675079    2.23664820146825    0.29554022611270
H           0.85387260965330    1.85960619655966   -0.60586293799296
H          -0.58114664560592    2.11973103264848    0.22738415892428
H           0.78632528976399    1.61265448691906    1.13709332030654
H           0.69696635617420    3.20881842061638    0.43491611764047
