    26
        -50.46074713  Gyration_radius:  2.63058773772 Dipole_moment: 3.297
 S           1.81502171968447    0.73179224873656    1.14327571296916
O           1.31825209878228   -0.59005649528181    1.50712019163493
O           0.93719478061884    1.79709119783131    1.57821352515676
O           2.19792217336762    0.81336679634674   -0.25503928668009
O           3.17152092444604    0.92709563229551    1.95465053600537
H           2.87658258101134    1.10215453013937    2.84353527178900
H           1.66095628770899   -0.11990424642656   -1.62429415241768
O           1.07992228385660   -0.53792487475001   -2.29146288552143
H           0.61914506051646    0.19726929746298   -2.70560908672191
O          -0.79776301920889    0.77217065402090   -0.11753285287336
H          -0.27665919274586    1.13153424121343    0.62407858212267
H          -0.56227329240587    1.34033377925647   -0.87130090077371
O          -3.29617581519167    0.17363360453393    0.53368492711550
H          -3.41763148847174    0.57210493246085    1.39694182993749
H          -2.41299437315054    0.47698857682262    0.21926653297620
O          -2.50626859433928   -2.36273128423535    0.36738345239621
H          -2.91414264985409   -1.46452583393733    0.34592631581365
H          -2.61412377932343   -2.68219007106720    1.26474971439436
O           0.65641594680603    2.40697777554856   -1.74870852952787
H           1.34211286899772    1.94242908866194   -1.22454635706918
H           0.65299449747459    3.31122013025238   -1.43157740490519
N           0.08257131880097   -2.00687791886260   -0.30730035086559
H           0.54640789168419   -1.44404757971052    0.46873443790992
H          -0.94357218256554   -2.10153195111080   -0.10958782088293
H           0.26911626616661   -1.46385177912080   -1.18898777251561
H           0.51546767802579   -2.92252045981612   -0.37161362986859
