    26
        -50.46070347  Gyration_radius:  2.66529438402 Dipole_moment: 5.459
 S           0.31947463805691   -0.64069673437476    1.60634093178206
O           1.57310218929248   -0.76881568568917    2.29877278767354
O          -0.76905051697088   -1.43092628575753    2.14834187256426
O           0.55624293139828   -1.23185461116320    0.12261129635957
O          -0.07866479198437    0.74400390794243    1.34811345222924
H           1.44192165321972    1.28776181871779    0.79425653914538
H           0.87552050598724   -2.13598489774546    0.31489947653069
O           2.30214999334872    1.33182767284506    0.33838461490447
H           2.81275448336947    0.62137794930433    0.73454090070407
O           1.56729275906723    1.90982359102782   -2.18289082264800
H           2.13551632473555    2.66222123276149   -2.35717947036072
H           1.81816082432815    1.60777042956220   -1.28227246121437
O          -2.97338923951572   -1.05611229720902    0.73657662690481
H          -2.17452783432012   -1.26006966329865    1.28041071107964
H          -3.64800001363491   -0.79404111706456    1.36492104266661
O          -1.02879752871156    2.28596107326561   -2.67362379367255
H          -1.12776823831429    2.18647803190434   -3.62154522775129
H          -0.06084709247337    2.22767344469061   -2.48889509733711
O           1.22620447157580   -3.33489078629227    1.57622964707364
H           0.35351351214366   -3.37264522666689    1.98262942621271
H           1.68727561097292   -2.62921268356656    2.05840655523720
N          -1.38995772346465    0.36982907865179   -0.85356777832029
H          -0.77173871128757   -0.36525151789660   -1.20269658926417
H          -1.49186879355861    1.13075694153990   -1.56378961443647
H          -2.26190719286780   -0.07097799946404   -0.49449630890899
H          -0.89261222039116    0.72599433397697    0.01552130284022
