    26
        -50.46340347  Gyration_radius:  2.42442663973 Dipole_moment: 8.431
 S          -1.05286476501740   -1.54952865773657   -0.40451980351920
O          -2.48026682182487   -1.43556595795078   -0.42781016035880
O          -0.50526367260930   -1.52516480585458    0.97175719523138
O          -0.42589172083123   -0.44645731515286   -1.16719544234630
O          -0.60927677020299   -2.88045302747045   -1.04634064344736
H           0.28358231704952   -3.09720606357083   -0.64690030177967
H          -1.65906321858213    0.65258351911178   -0.87973771705433
O          -2.27225220582592    1.30034541245112   -0.46292806198184
H          -3.09226643445528    0.80021287449464   -0.39926503083631
O           2.16409798199963   -0.58943954233187   -0.49826268078939
H           1.25037014243496   -0.55961023755105   -0.84057826310944
H           2.25692178774572    0.19381864696729    0.05479258813464
O           0.34784017657179    2.13678031635575   -1.64457747266554
H          -0.53897049639227    2.50360736996360   -1.58352695563072
H           0.21883503949262    1.17931393436182   -1.74676080829281
O           1.57506104261907    2.03361395205421    0.68788761069685
H           1.19792748337152    2.12992440571418   -0.22615353984241
H           2.15426398511333    2.78390959696137    0.82550752916104
O           1.58316549927869   -3.09232339628414    0.30416202390220
H           1.02931071208126   -2.74047872606260    1.01545955276820
H           2.07470301658983   -2.31508487835945   -0.02897965730081
N          -0.70108892845013    0.92694526748008    1.65913397162388
H          -1.41416501329759    1.24541051587540    0.95176777272643
H          -0.58699965691434   -0.14042072912622    1.46251746848817
H           0.20725498671287    1.39321187278023    1.45821611268040
H          -1.00496447664802    1.09205565287430    2.61233470358919
