    26
        -50.46892627  Gyration_radius:  2.48076344424 Dipole_moment: 4.929
 S          -1.72658911121169   -1.20791572367259    0.56984290752436
O          -2.02250226860858   -0.96386960160233   -0.83623102926434
O          -2.30702046891101   -0.21023196219587    1.44145849166174
O          -0.30473339134522   -1.41978310424930    0.78239523839070
O          -2.42921217826175   -2.57684697964384    0.94898076909467
H          -3.30840122733885   -2.27315361766075    1.14597310806989
H           0.94280685508414   -1.65397840470995   -0.24405805389443
O           1.65601823771807   -1.71264320421170   -0.92589605867041
H           2.03825098347123   -2.58655225511057   -0.83837218322521
O           0.66024641093577    2.12957531543092   -1.00591616517143
H           0.05072752800048    2.20766149021111   -0.24901812535629
H           1.50649483794234    1.77835617764228   -0.61956164478284
O           2.63838801010349    0.77533922663344    0.07722208569461
H           2.24106304018322    0.69218540870914    0.97293523510824
H           2.54831912301303   -0.10280056545513   -0.31640517490594
O          -1.00316369169448    2.02790801278818    1.16823205099327
H          -1.57876945540075    2.73577694387189    1.46176056240603
H          -1.52324219913190    1.19293849808335    1.26308066353197
O           1.06967394185516    0.43746933783992    2.22745455851542
H           0.58977828413588   -0.32819274515220    1.86860586949227
H           0.46031193451174    1.18022960302456    2.12162318883525
N          -0.03920435776600   -0.02781638750972   -2.23438330006905
H           0.22565164263278    0.93511655812921   -1.78819130530511
H          -0.89471981764476   -0.39589670456227   -1.72060499505662
H          -0.21941232111887    0.05588482578699   -3.22827138066459
H           0.72923966884502   -0.68876013241396   -2.04265533295184
