    26
        -50.46833187  Gyration_radius:  2.48357005199 Dipole_moment: 1.256
 S           0.72465782055167   -0.93688741023600   -0.52644351607905
O           1.29772527618344    0.38269569002549   -0.72471696841219
O          -0.71943797672643   -0.92016054530477   -0.73136365143172
O           1.06401506054361   -1.49449897857398    0.78147783067122
O           1.35033361989878   -1.86312457291202   -1.61343500275401
H           1.08562699136932   -2.75951932314663   -1.32566048200394
H           0.73748071537237   -0.36598567029483    1.93836229458884
O           0.44087242544672    0.30608576232382    2.59526437757917
H           0.59050303205170   -0.07876940744178    3.46040702750047
O          -1.79566076778463    0.72776571847193    1.09141122644822
H          -1.14497052085514    0.66981113939550    1.81301210792341
H          -1.59071082853494   -0.02927506002849    0.50776105401568
O           1.38572042252169    2.54165287772836    1.10472589028123
H           1.07909065921156    1.99146611853509    1.83649993921718
H           1.78570826187467    1.91797662720663    0.48768820962427
O          -1.82768344054432    0.62076488721537   -2.60695025606936
H          -2.72375888173265    0.31036979531059   -2.74578885708022
H          -1.40273676066134   -0.04032191700440   -2.01809555887758
O           0.70655555540153   -3.93546622165280   -0.11012611008159
H           0.74550895028932   -3.14655484071966    0.46717160548350
H           1.42539406691297   -4.51064139561651    0.16210290456578
N          -0.65137069600105    2.16614156891093   -0.78164276423981
H          -1.19829966835840    1.79538382198590    0.05505894631432
H           0.20312063292578    1.54570543272860   -0.82579047881351
H          -1.20053800907650    1.97275022684969   -1.63799013243576
H          -0.36714595031325    3.13263567623923   -0.65293964595495
