    26
        -50.46637110  Gyration_radius:  2.5857041971 Dipole_moment: 2.418
 S          -0.71663709132865   -1.23369065913808   -1.65450002343337
O          -1.59311332299708   -1.19873474157031   -0.49410220138786
O           0.49360475640111   -1.98897509902189   -1.44200463260083
O          -0.45004788684457    0.11486206898135   -2.15297242808100
O          -1.53193439369305   -1.98370750587717   -2.78923125310981
H          -2.41253298779647   -1.62866177604979   -2.70765157287705
H           1.00761762464978    0.42638997974739   -1.39730092444912
O           1.76241955405495    0.46201779265396   -0.76816659171492
H           2.32480048853130   -0.27508633700403   -1.01950166953395
O          -1.44189985076982    2.09354701067350   -0.68826764970900
H          -1.14021751807769    1.32614805022497   -1.21963920091965
H          -1.74840104360001    2.74675200800359   -1.31920069892059
O           0.78433830142653    2.73605702138283    0.71418993639091
H           1.43926884560920    2.20942537818128    0.24321382405374
H          -0.05079065624897    2.60559346893984    0.21878083339813
O          -0.08870021577376    1.58221014657313    2.93486436441505
H          -0.97212151910911    1.93292844775272    3.05852486012355
H           0.32613539054003    2.13888447719799    2.22960161085943
O           1.13803543281208   -2.99862181978576    0.94464497536811
H           0.96944253979550   -2.72197108110220    0.01866221970734
H           0.76053338863113   -3.87449159840371    1.03207050957840
N           0.22350981281701   -0.49089289660445    1.27997536231777
H           0.90490398632869   -0.06132034137454    0.61593025253696
H           0.60907840046571   -1.40300090320585    1.57535721211460
H           0.04327062703082    0.18067339853578    2.06614327841435
H          -0.64056264244302   -0.69633446954885    0.72057961769321
