    26
        -50.45261337  Gyration_radius:  2.53103638955 Dipole_moment: 5.567
 S          -1.04418236168693   -1.75684813933567    1.03147687150148
O          -1.59395182239884   -1.04284127602827   -0.10263692248358
O          -1.77148091785996   -1.67369414628364    2.24376406903030
O           0.38911374327683   -1.23239468465434    1.27697175261420
O          -0.84874954894517   -3.23440697745848    0.62548259080629
H          -0.49394907276246   -3.22750418515676   -0.30729848553283
H           0.89429059045877   -1.01664833048712    0.40627081387648
O           0.06415041683335    2.71089164820840    0.00398803584477
H          -0.19489267507621    3.62535555913423    0.12358543992374
O           0.06144495981248   -2.77089329901572   -1.75733480294444
H           0.85304607393812   -2.22954583609743   -1.61679253536889
H          -0.62801530109912   -2.16785045140675   -2.05466657184005
O           2.62632540209930    1.72632141492693   -0.15565933396220
H           1.74695512450117    2.13251741049636   -0.03341030484825
H           3.07924961511186    2.24767741616516   -0.82017545880976
O           1.56555013483430   -0.62010067365743   -0.88513974797828
H           2.17576302925162    0.08376734115195   -0.57659231575479
H           0.84805284410722   -0.11348357397373   -1.36088732779082
O          -0.48509155852079    0.69796485186528   -1.82692421355260
H          -0.37778489643725    1.53296952591316   -1.34211065002915
H          -1.08911274201753    0.15650155357459   -1.28883163221372
N          -1.22367274621545    1.21289595348573    1.77321055599755
H          -0.40608893210372    2.18393674480516    0.71619112687244
H          -1.73817407171699    0.55658329605452    1.19393766976793
H          -0.53785377458168    0.65113195166613    2.26601582718965
H          -1.87094150283499    1.56769693612632    2.46756551967573
