    26
        -50.46404273  Gyration_radius:  2.50587408122 Dipole_moment: 3.756
 S          -1.11208332131080   -1.73691155662239    0.25669589170099
O          -2.16124820967177   -1.08030313959614   -0.47531169669051
O          -0.61938165914370   -0.89194053931735    1.35414285342173
O          -0.00940586318967   -2.21090675966201   -0.56213166521723
O          -1.73168251840045   -3.02178479422099    0.93558330832308
H          -0.95733322409256   -3.54364550861375    1.11794779123317
H           0.35518045980874   -0.83276866282523   -1.44749785503859
O           0.73537966679697    0.00062739260854   -1.80452857761272
H           1.52479963336747   -0.28431283511636   -2.27901763425692
O          -1.70092245798498    1.26077524101733   -1.62999482724871
H          -0.80984234907472    1.05159541624510   -1.95162201712484
H          -2.09189147324749    0.38577547344658   -1.43469352594141
O           0.95847829620321    2.74548759247826    1.45943197782526
H           1.39087662616181    3.36774486416141    0.87279916487346
H           1.39295382232001    1.86706096969742    1.30541306370776
O           1.70427811984670    0.31924531022550    0.74099259322762
H           0.98247779388586   -0.21736270729346    1.11873703117660
H           1.49894637063257    0.35406753161867   -0.21338527603587
O           2.76680285827684   -1.85936122763202   -1.00017315697065
H           2.92473041645689   -1.31640363113824   -0.22102659014554
H           1.88847886470702   -2.24319643310016   -0.87650226002427
N          -1.40039392015124    1.59664952986670    0.96006042940718
H          -1.56335942600651    1.60890957872268   -0.09703440328943
H          -1.17594786633422    0.59297104368083    1.20714479695672
H          -0.56246559666680    2.18348083215968    1.20451763531366
H          -2.22742504318696    1.90450699921709    1.45945295843655
