    26
        -50.44211425  Gyration_radius:  2.58393446645 Dipole_moment: 3.302
 S          -0.63797607296935    1.18817218105330    0.53108139184037
O          -1.86702860038318    0.45295206047617    0.56456727295679
O          -0.76934498311787    2.61535976171879    0.53759624558336
O           0.15199304415989    0.76737660779567   -0.75217655259166
O           0.29343772706502    0.72781273385417    1.64800693033088
H           1.22378726340149    0.48361460868419    1.28383653077808
H          -0.57157626395800    0.67340592780637   -1.46439274825856
O           1.53966444848155   -1.78953223123294   -0.83682339116786
H           1.20777023584282   -1.34234874079174   -1.61776846838299
O           1.90774144547085   -2.29249693784907    2.33012435632223
H           2.22461151178964   -1.38572262800268    2.35433335067781
H           2.24691317572784   -2.67157335923358    1.51508758954468
O          -2.18966926244024    3.22798098932988   -1.64344777013544
H          -1.75584900494369    3.12283837102792   -0.77321995129792
H          -1.83114131619431    4.02921177127138   -2.02946327419405
O           2.52605534149821    0.08291331327355    0.65852498085353
H           2.21890980927499   -0.67221581315942    0.06237875515244
H           2.77499546844840    0.80108979431258    0.07328961634283
O          -1.91550006364732    0.64087310104385   -2.19708597643541
H          -2.43395488737371    0.29185244011442   -1.46017825013658
H          -2.13031055344988    1.59963315547081   -2.22482999399495
N          -0.55679001931598   -2.12963008623767    0.72181244013661
H           0.72252274528579   -1.99957196734576   -0.28288665569917
H          -1.17643443227096   -2.92515291867065    0.63496670271242
H          -0.07659593305598   -2.20841814919123    1.61526181484747
H          -1.12623081333891   -1.28842397553056    0.75140504423751
