    26
        -50.46358822  Gyration_radius:  2.57080494803 Dipole_moment: 2.070
 S          -1.32245043711558   -1.45579842834916   -1.04790883129209
O          -1.85916691590276   -1.29546963071081    0.29314069951229
O          -0.14082484345343   -2.28249044801811   -1.10240934453304
O          -1.10968638478237   -0.15584658259832   -1.68651969072814
O          -2.44613774155179   -2.19525493175655   -1.88416640397894
H          -3.25468576385815   -1.78742124115799   -1.58620927614441
H           0.50583314391883    0.03917338996194   -1.49990946182155
O           1.42813147437293    0.01586984285259   -1.14872079342158
H           1.74275717092738   -0.86511024041042   -1.37223665827661
O          -0.00874367948129    2.32155558021494    1.80824763253549
H          -0.76744281506919    2.35388386643252    1.19046622257494
H           0.74558261440215    2.62574629873073    1.27533852400274
O          -1.68124671990165    2.07867415742067   -0.31251054334924
H          -1.49917223232339    2.75751619733034   -0.96508980413040
H          -1.55020518768724    1.22691209971174   -0.77453985027171
O           1.16302544119467   -2.78323314460731    1.20287897112668
H           1.16060181206020   -3.72468958546832    1.37798470391659
H           0.69083212011510   -2.67148734608194    0.35347213265363
O           1.97505583261705    2.54644607569381   -0.09300140805308
H           2.92091350962157    2.69695396813056   -0.09453217548891
H           1.82246082765337    1.72772624951960   -0.58920397027767
N           0.30544140262399   -0.23226730310555    1.36035068990167
H           0.86431995558668   -0.15551525739768    0.48558844559839
H          -0.63432756555988   -0.61572568376411    1.07998939377230
H           0.75510394421873   -0.92032829947278    1.96601717903445
H           0.19403104746580    0.75018037688830    1.76348362706671
