    26
        -50.46825954  Gyration_radius:  2.51144854106 Dipole_moment: 5.424
 S          -0.66602181621044   -0.95659827718570   -0.19221467324809
O           0.75717760038475   -1.23856942559896    0.10355240091619
O          -0.80363077163633   -0.37864901771647   -1.50718547927799
O          -1.22259485100437   -0.09671334158390    0.85264480626544
O          -1.41833072129689   -2.30330504434858   -0.18784674297948
H          -1.30062661417726   -2.73447746707394    0.70230596165946
H          -0.59834470690872    1.36266433344791    0.83693662390674
O          -0.09741502592058    2.22439835464091    0.80320751266653
H          -0.15545559334716    2.60085066460082    1.68280848412054
O           0.79101641687195    1.22579853517326   -3.08800270482264
H           0.07788078595028    1.86474634012169   -2.86316472834609
H           0.33169346390239    0.37467825714228   -3.05053267696674
O           0.38461921142709   -1.16080870913627    2.71925656492231
H          -0.38239472335340   -0.60354239424034    2.52076944732659
H           0.81011610230691   -1.24698539734361    1.84456298953392
O          -1.28767705014133    2.28661141999520   -1.79769458322066
H          -1.41191322452335    1.32803625286856   -1.67996545303900
H          -1.04056898858561    2.61651837725749   -0.92622667472745
O          -0.91030204615763   -3.39096298884698    2.12635293088186
H          -0.43176307853954   -2.64034379804971    2.55674527696105
H          -0.26845095289766   -4.09380201863672    2.00596228923418
N           1.80121993522178    1.00461313419672   -0.68760898259751
H           2.79991606711511    1.13443251710336   -0.56538888774782
H           1.49253709350146    0.02536710552514   -0.39756840579229
H           1.25099905595331    1.66040433466711   -0.09646498485177
H           1.49831443206190    1.13563828301961   -1.71524032077249
