    26
        -50.45642302  Gyration_radius:  2.58397346937 Dipole_moment: 3.123
 S          -0.72218229755723   -1.31226861089297   -2.06317395002718
O          -1.65490595731494   -0.24377964925352   -2.34697033560298
O          -1.33644518392169   -2.36385823292459   -1.24948457297001
O           0.52937658535439   -0.85829162442742   -1.48113280617167
O          -0.34756980445858   -1.97230824339536   -3.45207606122109
H          -1.18589332445492   -2.00919652886630   -3.90269267167269
H           0.99612842825231   -0.96916855353537    0.12007789727227
O           1.16959274803097   -0.93611565211251    1.08878904582981
H           2.08855546685469   -0.66863245994541    1.17925675532976
O           0.99880433069941    1.72762308785571   -0.82448715248538
H           0.99484182083875    0.86347032437463   -1.26929789009253
H           1.70924864777755    1.69158718688130   -0.16017275373679
O           0.22341019521813    1.30551581654267    2.38672471631006
H           0.47423809736035    0.45936642393766    1.97104168856798
H          -0.41899024306519    1.71596301600173    1.80080002741784
O           2.72502463942735    1.67040568940743    1.35825988665065
H           1.93134317873532    1.71389616734049    1.92805428547645
H           3.22181925811282    2.47469029011944    1.51083154447531
O          -1.48884279835759    1.17359413772602   -0.13164101361792
H          -0.57878713711374    1.52125370368089   -0.31832481534940
H          -1.74841000355915    0.81163634300971   -1.00567646078325
N          -1.53330257384968   -1.16814512106635    1.00878077304047
H          -0.64053109084172   -1.33541357417105    1.48322468036390
H          -1.54893821381745   -0.14618896057797    0.64815395690941
H          -1.53364415997635   -1.76953859030158    0.11187411005195
H          -2.32394059882857   -1.37609638447107    1.60926111529229
