    26
        -50.45756265  Gyration_radius:  2.71344576712 Dipole_moment: 4.207
 S          -2.30502510139240    0.47858652795238   -1.55680267091638
O          -2.74249912982714    1.03354067291795   -0.27757506802797
O          -2.63774486788124   -0.90453306808978   -1.73666972621035
O          -0.86830927280693    0.72828834406498   -1.75005199845833
O          -3.05212941307872    1.32006604179483   -2.67348301756064
H          -2.92873843118127    2.22351201102798   -2.39473553415388
H          -0.35123165429897   -0.69981035545553   -1.29424247888780
O          -0.15174389041366   -1.58410243934718   -0.88132437508124
H          -0.81109719147468   -2.15729812110498   -1.28622433003435
O           2.46471331246281   -0.92159002974084   -0.61595185492642
H           2.98235345721948   -1.27231882983540   -1.34192211695686
H           1.56060078394868   -1.27593791088870   -0.71935487782573
O           1.22101923961057    1.65287718488578   -0.29374251504620
H           0.43306551813511    1.48655466811940   -0.84193630886561
H           1.82261405457424    0.92204728689142   -0.49149680218970
O           0.64499558583547    1.04065496653803    2.22765493523670
H           0.85723814282169    1.47225135929759    1.36540263552114
H           1.37863454452782    0.41132662760173    2.37702435781802
O           2.70128112732002   -0.73159092687879    2.12969418009121
H           2.68052150859335   -0.86356369900696    1.16571040112043
H           3.56257001734548   -0.36618198156036    2.33747519326037
N          -1.30130652409693   -0.41750556327888    1.32918172399013
H          -0.84466068378778   -1.04484815884753    0.63822769290990
H          -1.82500626358751   -0.94611992397776    2.01817367083411
H          -0.53608068564669    0.19930108828224    1.79510599254408
H          -1.95403420291311    0.21639422863765    0.77186290181924
