    26
        -50.46862418  Gyration_radius:  2.56406934284 Dipole_moment: 2.434
 S          -1.50493849214754    1.39884961909781   -0.51546677708396
O          -1.62646010006092    1.51669920832907    0.91421544765938
O          -1.50076872597709    0.00014641980893   -0.95764928974326
O          -0.37776002521361    2.12999939889233   -1.07202404333129
O          -2.81037377798175    2.04819321686251   -1.13591036914044
H          -2.64719666107481    2.07765820789441   -2.07452389205783
H           0.73730462987585    1.68582875131107    0.05254928831111
O           1.29371602272559    1.30780143188222    0.77323352826813
H           1.13774457311781    1.87187201204612    1.53354508464417
O           0.65486744511891    0.07028189980282   -2.55843032029386
H          -0.17282890043630   -0.16242570544376   -2.10144597379229
H           0.69936066229755    1.02888227754872   -2.46070938259956
O          -1.80764600994332   -0.30394274638281    2.86415380686940
H          -1.80381434831431    0.45924069199526    2.24997516864955
H          -2.72534536164233   -0.46004206056022    3.08989995516311
O           2.64904787647764   -0.64375120775471   -0.87687454374806
H           2.55602337635609    0.09282798446824   -0.26276297986928
H           2.01633969986080   -0.45489477401578   -1.60290852510658
O           1.70812740832527   -2.88877841223042    0.14379025870427
H           1.53470815052636   -3.47695879592459   -0.59246057233260
H           2.22271698846948   -2.12828279225539   -0.23005542506952
N          -0.04507806865014   -1.06287778312429    0.97669976248741
H          -0.61027799470103   -1.12048571600340    1.84001630299684
H          -0.69189277911561   -0.83392009161280    0.18531040155999
H           0.58540445656752   -0.23567661816694    1.05024257723947
H           0.52901995559736   -1.91624442659726    0.76759051158598
