    26
        -50.47168698  Gyration_radius:  2.49105862002 Dipole_moment: 3.006
 S          -1.39018609099279   -1.79627724138792   -0.37743533739564
O          -0.16788641343096   -2.52094904888759   -0.61532654265232
O          -1.87826635741483   -1.06662298258810   -1.54279736672436
O          -1.30828545393308   -0.91163346448315    0.78237827620817
O          -2.50157937973941   -2.87213480853520   -0.04392215681717
H          -3.28592316393763   -2.33423621567252   -0.04218428205840
H           0.18693761281681   -0.89565137119812    1.61563363543701
O          -1.47120594312756    1.76591097876104    0.99676276626236
H          -1.55796594509365    0.79793728320311    1.09723902317577
O           1.69783716512653    1.24986003875188   -1.08378745214690
H           1.95032542509795    0.31211770283118   -0.98237655980924
H           1.66808132445869    1.60511187153552   -0.17684991244567
O           1.09854086983539   -0.71816111391397    1.92608219538333
H          -0.57830631183034    1.97013942955156    1.32939637542090
H           1.67187745141913   -1.07200795068445    1.23054809699398
O           2.15528545001256   -1.38356307186657   -0.57140206706768
H           2.78341973670493   -1.97330860508590   -0.99054787164636
H           1.27466640841887   -1.83455523240922   -0.63302286464149
O           1.22049718751447    1.85504096616417    1.55940459849148
H           1.20079447093677    0.87771034662051    1.77959932099567
H           1.71656514182723    2.27971024577107    2.25937156641859
N          -0.90161951176066    1.34915319656696   -1.53122856913123
H           0.16014431932810    1.31131324460813   -1.49384320838978
H          -1.29052011878394    0.36729070674896   -1.63482399197715
H          -1.22743621512102    1.68909574252192   -0.57553095733509
H          -1.22579165834730    1.94870935303939   -2.28133671456517
