    26
        -50.46152685  Gyration_radius:  2.59925467772 Dipole_moment: 7.383
 S          -0.57204157527274   -0.43865766567446   -0.11330702840734
O          -0.47406254958625    0.55612041847692   -1.18207983888397
O          -1.43423967726553    0.05136120565283    0.96858477006575
O          -0.93749581605811   -1.74577338739343   -0.59732698883207
O           0.82688524420500   -0.50527834300553    0.57415171948846
O           0.74186661921483    2.70922330625016   -0.44863097394624
H           0.35086978797893    1.87473542794868   -0.82557079148747
H           0.26488137529528    3.42855667667714   -0.86713827646354
O          -2.60217685589632    2.32466307392885    2.04106790131835
H          -2.43531186740872    1.48210321516859    1.58626142470665
H          -3.54974921201511    2.37755757120878    2.17021697202176
O           0.70342897706357   -3.83115832186136   -0.47621922975915
H           0.01100149223586   -3.13991743213403   -0.54327100009858
H           0.57769895375056   -4.25055596416853    0.37572693190078
O           0.54096845461914   -1.12605957895765   -2.98020064632567
H           0.13510563413718   -0.40844169752284   -2.45765609822408
H          -0.05931328569236   -1.87068815441743   -2.88310083171611
O           2.30083000939124   -1.73599845617515   -1.06752059594760
H           1.98612521005594   -2.64333683273045   -0.88584221369483
H           1.86193241527205   -1.48715873811003   -1.91305340174640
H           1.48489940246192   -0.96848709539409   -0.06540418105694
N           0.07913476722575    1.88647471617303    1.95071874916454
H          -0.61939847506776    2.48072965857843    2.40532046463716
H           0.83875124262470    1.61930636673416    2.56778660935769
H          -0.46193754176357    1.01720238278668    1.60813593294471
H           0.44134728043687    2.34347765798900    1.05835064094887
