    26
        -50.46483972  Gyration_radius:  2.6598084074 Dipole_moment: 1.911
 S          -1.96948849964840    0.30706296860091    1.17370913361594
O          -2.16578497343453    0.92571522852206   -0.12839463850823
O          -0.90799195430480    0.94259558895909    1.93953744842516
O          -1.79307883133285   -1.13089022210190    1.08026507199808
O          -3.31019203608708    0.56148349271063    1.97985148523601
H          -3.06130637667846    0.31090019577021    2.86373017347742
H          -2.38238699526676   -0.88941373354332   -2.66131232445144
O           0.11791403759963   -1.53333218810232   -0.63184993260544
H          -0.59346829992044   -1.53078480093982    0.05624054154735
O          -0.42677203740562    2.32614375887234   -1.65509740731711
H          -0.55268801656088    1.79478609160041   -2.44717406798702
H          -1.17534303055364    2.08803320092125   -1.07682023383170
O          -1.61939888445440   -0.39726510464073   -2.35569806178474
H          -1.91223899519974    0.07785777893168   -1.54458410884943
H          -0.35726042758977   -1.32292278778898   -1.45825453023287
O           3.55548980447559    0.26387822702613    0.74636320257278
H           3.25741010815568   -0.66893944776390    0.80551988679925
H           4.35658991215873    0.26007332955614    0.22154898731882
O           2.41166765657372   -2.19078650660172    0.73916612811412
H           1.65345583097878   -2.12243472435745    0.13472327165374
H           2.05121614014674   -2.47753955182105    1.58032359745800
N           0.98999647108613    0.89930140739146    0.12657705417759
H           0.70290896652964    1.60099366759642   -0.58935055038540
H           0.77229258981351   -0.05872379845173   -0.24445053949916
H           1.99348539554007    0.93890107859350    0.38179384825144
H           0.36497246556800    1.02530685999367    0.96363658446117
