    26
        -50.47163772  Gyration_radius:  2.37111651522 Dipole_moment: 7.007
 S           1.06506852845155   -0.95172678321824    0.57142652924903
O           1.86644093439043   -1.35343815971426   -0.57550645685342
O          -0.36052858343003   -1.18247140527026    0.31580155446670
O           1.28513260369419    0.46338101849385    0.88838524906038
O           1.48540965263705   -1.79994566472285    1.77931715475553
H           0.70186845990912   -1.72540819079490    2.40711056380383
H           1.11439166200907    1.50488692722559   -0.29478042058332
O           0.91553884702083    2.08928730790230   -1.07802937149326
H           1.50457249741908    2.84128486050770   -1.00083079572948
O          -0.65044647101976    1.18164019525924    2.59724059290572
H           0.16633786986218    1.04956663181962    2.07869015534498
H          -1.33104573828597    1.40062046991711    1.94670681698343
O          -1.67757399493680   -0.92486581281685   -2.02046075510477
H          -2.14253057893363   -0.14331111007024   -1.68466922707056
H          -1.33450699184367   -1.35125172538115   -1.21247736646598
O          -0.71475946678892   -1.44026797699054    3.03653734935869
H          -1.21403000186297   -1.65740007863999    2.24102317380332
H          -0.75303181992567   -0.45554853387131    3.10430443500448
O          -1.64632821276245    1.14477538988597   -0.11438859207788
H          -0.96756537755531    1.74149097728112   -0.45002817222515
H          -1.17777206860897    0.32466966935731    0.13702248176277
N           0.77843321447469   -0.14461544290050   -2.57221304423768
H           1.17828473348307   -0.27901577297494   -3.49454908204449
H          -0.24150995853896   -0.45099264871120   -2.52711575278554
H           1.29814092949549   -0.72414247204815   -1.82640702639479
H           0.85200934162154    0.84279833044132   -2.25210998342933
