    26
        -50.46468849  Gyration_radius:  2.56173793586 Dipole_moment: 2.535
 S           0.03917625199019   -0.90734547603266    0.60674899192779
O          -0.33332378647879   -1.53288296731324   -0.65777409032428
O          -1.09824566185155   -0.23918067713591    1.23703086225266
O           1.14779320670834    0.02619368332183    0.41406066682976
O           0.50813496959750   -2.05269312685970    1.53548765278379
H           0.75479183742215   -1.64878427852517    2.41183519807803
H           1.92838087286782    0.70117952160936   -0.91100272432766
O           2.22721868617406    1.02423428311918   -1.79083471690583
H           2.99562602874575    0.49792914227060   -2.01622548938436
O           0.44287597253359    1.43547651766912    2.57290095874110
H           1.06445570947016    1.26092541969113    1.84901734514289
H          -0.36417995884583    0.98117945635525    2.26479906579189
O          -1.47303049404192    1.89037585523671   -0.27304787402818
H          -0.95406051803658    2.54385499738488    0.20202596400284
H          -1.48357485320744    1.09020701763855    0.30131341806037
O          -1.85208801002349   -1.67924154011128   -3.02331169497983
H          -2.55991698767713   -2.31726814427660   -3.11986935647613
H          -1.41767424609714   -1.88239227461937   -2.18188486377460
O           0.98665786993160   -0.85053612045331    3.79881425837970
H           0.89045218424738    0.09141546748831    3.51296590410940
H           0.26178297906960   -1.02672045279344    4.40238918461530
N          -0.34395864459541    0.54010104884488   -2.26559999797040
H          -0.29646674957254   -0.33740946758652   -1.67062186234945
H          -0.85463156988233    0.30604163125341   -3.11524515742283
H          -0.85408405108304    1.23524498848222   -1.66691996843669
H           0.63788895265217    0.85009547542919   -2.41705166433733
