    26
        -50.46468811  Gyration_radius:  2.5612725756 Dipole_moment: 2.527
 S          -0.34456645881952   -0.99100636214431   -0.29826853548519
O          -1.11605564280481   -0.18195066150548   -1.23976423540103
O          -0.92994085215732   -0.97375509484831    1.03812502189469
O           1.04944637796651   -0.55054158818374   -0.25610965134014
O          -0.38681065393066   -2.46399675044548   -0.77095202261961
H          -0.00251701815187   -2.49853428632347   -1.68911838822340
H           2.05167426371847    0.15088829237134    0.89621028230810
O           2.46341307836832    0.59529637353868    1.67116373875273
H           2.94792420308230   -0.08695170393540    2.13804366652788
O          -0.55825442053695    2.28724414672107   -0.49998310603550
H           0.18549545006301    2.48435547663838   -1.07450293158669
H          -0.90529654022678    1.41672758044365   -0.80344449286780
O           0.97029357869129    0.22806842381058   -2.80713017580420
H           1.45423342549061    0.06729158281013   -1.98122044330291
H           0.04505262436170    0.25757964465143   -2.49984929536509
O          -2.35173360262622    0.25868756125454    3.13191485862571
H          -2.04713305491892   -0.35814112787548    2.45012208298688
H          -3.25579394448089    0.01222095620614    3.33064967029786
O           0.52791763721321   -2.35413241018138   -3.21000552065185
H           0.82733434603516   -1.41183854035828   -3.23490434560249
H          -0.20831123091795   -2.42187930178423   -3.82176676463103
N          -0.07598201294345    1.33861553710684    1.93605488123246
H          -0.63218303422149    1.61424027034184    2.74357901254420
H           0.94736231164933    1.27096201500874    2.11276110675886
H          -0.39732829814090    0.37051579547908    1.64324306737394
H          -0.25824053189155    1.94003417125459    1.09515248963211
