    26
        -50.46680124  Gyration_radius:  2.60664771944 Dipole_moment: 4.783
 S          -0.95311288744825    0.24553387646811   -1.28852857893079
O           0.30340779357687    0.80586308122518   -1.82801096257403
O          -1.19602426835016    0.72398875459684    0.05756862045893
O          -0.92830772040335   -1.20260638393788   -1.36526627551547
O          -2.11117277128897    0.77910193754381   -2.18403057883335
H          -1.80039936527927    0.60866523537034   -3.09555156272683
H           0.11447889459545   -1.88315041185101   -0.40477029797716
O           0.80536865067159   -2.21244023396215    0.23707975238640
H           1.05792729025654   -3.08345471740708   -0.07302633193071
O          -0.54235647989230    0.55243524629503   -4.30515472557213
H          -0.42056478649055    1.37574181755519   -4.78358476179422
H           0.01760626432627    0.60897826528802   -3.50509360051915
O          -1.27357586020109   -1.23278655446661    1.92628045069065
H          -0.62684326726856   -1.83207218808570    1.53296988341095
H          -1.42271029249168   -0.54445955096889    1.25096993234812
O          -0.03686786520198    0.17061333732950    3.79892681392497
H          -0.68943818208397    0.48035166241009    4.42817774915304
H          -0.51799436869047   -0.43950315227698    3.18522422639997
O           0.59834215266025    1.77755691439084    1.78176887671033
H          -0.19304386033588    1.63916581954355    1.22803955412670
H           0.42527397295002    1.27762211397117    2.61605363464549
N           1.91572895370926    0.26649947563646    0.16191189769187
H           1.38527302972263    0.53305683561094   -0.71607129129224
H           1.68484485757409   -0.72819767120768    0.35187812395462
H           2.91442981726287    0.40628716015635    0.05533924680289
H           1.48973029817163    0.90720935065274    0.93690017495278
