    26
        -50.47113787  Gyration_radius:  2.45491450769 Dipole_moment: 1.293
 S          -0.36186278103666   -1.56392640517883    1.32358208830210
O          -1.41477472200820   -0.74986610538332    0.72209463581240
O           0.61031872792656   -0.74659658227918    2.02428013701770
O           0.21718736441756   -2.47939660796865    0.36159788261585
O          -1.05311836252973   -2.45869435621995    2.43200926601169
H          -1.45052441604670   -3.16555609005602    1.93313937207060
H          -0.23824816845076   -1.71926842624317   -1.84900652495126
O          -0.58923809823047   -0.82926230487556   -1.75774761509517
H          -0.97509248701958   -0.81421849876896   -0.85140726684700
O          -1.95408616766362    1.89644678950762    0.40777156061249
H          -2.06550028155076    0.94734827322678    0.58938210107357
H          -1.94531454537308    1.97411371355238   -0.56823286314668
O          -1.41012940317697    1.77161325576905   -2.25467567010993
H          -1.32268102011565    0.80904010017172   -2.30932788787549
H          -0.55096933639721    2.12899163195018   -2.49032778444506
O           2.59652701374787   -1.30107879064409    0.11375579896558
H           2.70355330395757   -1.05579014192994    1.03643130638334
H           1.79729404867159   -1.86412826058969    0.11147563557341
O           1.57211616560506    0.73974227400202   -1.27894456238648
H           2.15749426073958    0.05165853769673   -0.89220432859957
H           0.80423189555521    0.22710092114846   -1.60608854134382
N           0.58848326630293    1.66941664387530    0.97473773240895
H          -0.44010182165922    1.91431996993660    0.80280982827059
H           1.04291620297641    1.44163637465462    0.03603325689094
H           1.07950939203125    2.40703291084764    1.46684651737434
H           0.60200997954290    0.76932117382857    1.52201592543309
