    26
        -50.47263061  Gyration_radius:  2.51016683754 Dipole_moment: 3.707
 S          -0.88669969216942   -1.06919274064247    0.29890382966803
O          -0.74026790019424   -0.85182501820242   -1.12615935909149
O          -2.18629988981414   -0.68712845855582    0.82024297155025
O           0.19237818647999   -0.41577359755292    1.04971773586765
O          -0.70133502865088   -2.61456603074286    0.51289853915372
H          -0.84651503665483   -2.73366686481937    1.47280502298196
H           0.29767229360818    1.32287374245974    0.93530196411250
O           0.17851592808969    2.22652961489685    0.58081748243780
H          -0.79140489341659    2.34522438285697    0.55266634505575
O           3.02756017596135    0.32557217328229   -1.92846590189114
H           2.74241423798179   -0.48872392753941   -1.44474718091907
H           3.70676102600489    0.72793807966678   -1.38432816694771
O          -1.18991822912588   -1.89168465055494    3.00783400070910
H          -1.86397684015519   -1.39882228336968    2.51307415035715
H          -0.41905867033406   -1.31448432233419    3.02346428186375
O           2.00607523273568   -1.63453892921232   -0.46241090200009
H           1.39465211244938   -2.21609108780977   -0.92086220553027
H           1.45435955864060   -1.16199005718449    0.19134593368721
O          -2.46841263543429    1.89237059910905    0.25237332543790
H          -2.43219006737151    0.92395615131274    0.40389833743140
H          -3.24393577077145    2.20292236759567    0.72324069496261
N           0.55686204210458    1.32320136261600   -1.84338739100933
H           1.55949951237999    1.04052964023761   -1.99335332407984
H           0.18464145271073    1.84253998980700   -2.63026619165650
H          -0.00051054452152    0.44037356336924   -1.68060592720590
H           0.46913345947930    1.86445627132775   -0.92399806494313
