    26
        -50.46651083  Gyration_radius:  2.46187596991 Dipole_moment: 5.698
 S          -0.57729499488816   -2.19581755965468   -0.19334137566904
O          -1.82324665944048   -2.06792515974416   -0.91833860174604
O          -0.73000981983135   -2.03373057644287    1.23594939337890
O           0.47559391042478   -1.34132429706351   -0.73925182154242
O          -0.06051328283922   -3.67749773903958   -0.43613351733027
H          -0.78814778862356   -4.17517545613338   -0.08000256989376
H           0.17858881670372   -0.16411182691348   -1.75177758189959
O           0.03076609353821    0.64064874004137   -2.32174415909306
H           0.28237402821594    0.37868454418391   -3.20838721700253
O          -2.16690285721096    0.49424247818184   -0.59157374278134
H          -1.68654536827440    0.75326488720995   -1.39043867286185
H          -2.18074452696622   -0.49022291736145   -0.63183838411079
O           1.24967797026693    2.32325445819899   -0.63590182455596
H           0.83847418702040    1.74266848734781   -1.31703358284682
H           1.59348546129344    3.09080531117863   -1.09400851103607
O           0.58190930594971   -0.21427848752399    2.57819512408219
H           0.09056586765479   -0.99057618424032    2.22038396576485
H           1.42376219748281   -0.20368944471706    2.06853827812345
O           2.38733347419315   -0.03768772266723    0.62518374781055
H           2.25798114290811    0.83717648869081    0.23904311007438
H           1.81819350838111   -0.63535044109679    0.10306291855870
N          -0.64843486122483    1.61714055180532    1.25609539490768
H           0.07810884737037    2.06482851067690    0.67641493778128
H          -1.31916890782525    1.11878964504106    0.59752067796284
H          -0.16148104292916    0.86406564609174    1.89412259007925
H          -1.14432469134323    2.30181808394727    1.81526145384248
