    26
        -50.45187217  Gyration_radius:  2.52710344767 Dipole_moment: 1.869
 S          -0.99744182205544   -0.82760743555343   -0.99889736808892
O          -2.02056387113468   -0.16009473759153   -0.24225318689035
O          -0.23166043182237   -1.78283075236645   -0.21280968470268
O          -0.08302573118810    0.15102524888375   -1.63671614006189
O          -1.64954971304631   -1.63990334191125   -2.15980665094268
H          -2.02682786530525   -0.93292040301822   -2.71543746066584
H           1.23827340943817    0.45756593912700   -1.08282985671494
O           1.31576847602780    2.40130653368118    1.02521996928503
H           0.97612298582911    3.15229147246848    0.53544298445720
O          -1.93076081885190    0.65908138498779   -3.44401067137714
H          -1.20402846031803    0.75129892450744   -2.79862786606721
H          -1.53055854234725    0.69362841366244   -4.31604027236877
O           2.12005765142206    0.67361044848062   -0.57997772168949
H           1.85260763464276    1.43408181421618    0.11867461024255
H           2.32135098296903   -0.18936293893521   -0.04761747618444
O           0.04366301989961   -1.64493174562467    2.44658458660167
H          -0.39729344002148   -2.36962135892684    2.89189758682341
H          -0.19906604730841   -1.72233823253766    1.50037416372438
O           2.25759105346053   -1.53471426383312    0.64779074362091
H           1.99437604762241   -1.46555415860545    1.57513563199180
H           1.44378162552490   -1.84560251336345    0.19595793202788
N          -0.72923649944064    1.12505476293433    1.89136029094302
H           0.48469824032220    1.91203885657075    1.42765113942898
H          -1.25616837508414    0.76625210578736    1.08888882984797
H          -0.41438606366933    0.30735797227699    2.40848232913009
H          -1.37772343559502    1.63088800470366    2.48156354777062
