    26
        -50.47562129  Gyration_radius:  2.39554241906 Dipole_moment: 6.100
 S           0.83852824915306   -1.26442175401478    0.94450722210810
O           2.01415267237580   -1.58386259754253    0.17320842351957
O          -0.39788768400852   -1.70128870107374    0.29895560695215
O           0.76574787292452    0.17872289283883    1.22811132625288
O           0.94337069910848   -1.98456592455251    2.31944339552314
H           0.05520177480223   -1.83470959056420    2.69979935882344
H           1.37690049435509    1.28580616058312    0.08090772048025
O           1.45264022333151    1.81009137546114   -0.74622496770987
H           1.80571351377063    1.17718980144055   -1.39460840507648
O          -1.50882426983668    1.31264314765504    1.53996563840015
H          -0.63115770250499    0.83759108837058    1.46638644610690
H          -1.34655010107657    2.06259247259048    2.11514787615376
O          -1.63002663324212   -1.37727285373080    2.59579111395385
H          -1.88578163514596   -0.44779034769972    2.54650717051018
H          -1.49752258168318   -1.64705332220839    1.66881835547010
O          -0.79916528260267   -0.73883775966936   -2.10408660142082
H          -0.75537603017202   -1.22900748178213   -1.25033564940359
H           0.12857158371872   -0.69707542875009   -2.39542621241075
O           1.93531726533529   -0.48457577435124   -2.17270582024220
H           2.63490912011972   -0.85978512825154   -2.71010566385914
H           1.99992312135111   -0.94060934085063   -1.29189831320649
N          -1.12943817570255    1.65232015653798   -1.13307639964460
H          -1.13317508351299    0.67589966314073   -1.59278825789726
H          -0.08947160113453    1.89585639808985   -1.04439225242587
H          -1.64601255350830    2.33214536632455   -1.67880993105522
H          -1.50058727619831    1.56999748201176   -0.16309118990141
