    26
        -50.45069577  Gyration_radius:  2.47388961921 Dipole_moment: 3.139
 S           0.95729864589218   -0.12208121092560    1.79805033148606
O           0.84672433047871   -1.55548122214630    1.80906440713323
O          -0.32213169640470    0.56182441007982    1.67806130263974
O           1.90058202819578    0.37321441067011    0.79009525754341
O           1.56546590841928    0.30831254866154    3.19192316237054
H           1.59117727922245    1.25665430958938    3.11903407629274
H           1.47666844457292    0.76948160840166   -0.55167222777079
O          -0.20413124262001   -1.12725475734896   -1.82264635183342
H           0.53610857466247   -1.72370025073156   -1.55097759242829
O          -2.14479404245631    1.56089117734327    0.00255933874878
H          -2.42298327543135    0.73525394658961   -0.40217139949307
H          -1.53076152103607    1.30441002184565    0.71885496514755
O           1.11671382642335    0.94093874526388   -1.50862864097148
H           0.48540958098011    0.07549419513479   -1.71217649303731
H           0.54509805241260    1.78223378918870   -1.49482257159055
O          -0.47110050741474    2.95035153803391   -1.46374697378848
H          -0.89172592762763    3.19568189123003   -2.28943765841127
H          -1.17344840463561    2.55866682548515   -0.88417197704110
O           1.82207206591167   -2.24766433336066   -0.55792816781375
H           2.59697069572399   -1.68331668483208   -0.60969889215285
H           1.48318874818114   -2.12563387104067    0.35388549176921
N          -1.68199376630862   -1.56390824449646    0.34515494656297
H          -2.67191307568308   -1.60643014231160    0.55900246365292
H          -0.87236953325256   -1.24422594553225   -1.09173758347866
H          -1.24699157244450   -0.90553376226553    0.99154011897441
H          -1.28913361575249   -2.46817900253172    0.58259067746806
