    26
        -50.47049383  Gyration_radius:  2.50800463731 Dipole_moment: 4.357
 S           1.35112775240777   -0.29879373399820   -0.72768505023559
O           0.41068530014897    0.43711753704351   -1.54830997201241
O           0.67303537284474   -1.39407502153591   -0.00751225049130
O           2.06381922402866    0.55216308760180    0.20342036540793
O           2.37620135774681   -0.95809419168093   -1.69761982956843
H           2.85280765797234   -1.58958178495066   -1.12403668952413
H           1.20889996523215    1.35395975213704    1.26210537212698
O           0.59557216249659    1.78498036836302    1.91997957300518
H           1.16184333007010    2.19645297192472    2.57454837023228
O          -2.86849758071265    0.74382333110167   -0.00845222355670
H          -2.73631000414416    0.18866177962313   -0.80867615105478
H          -2.33934706545505    1.55780128427562   -0.18525558971637
O          -1.94748189624963   -0.63327684914306   -2.10870680270798
H          -1.03119784481092   -0.33199030371535   -1.92636482609855
H          -2.14772228887921   -0.33276278397544   -2.99684406377858
O           2.89379231795013   -2.77629270161751    0.15279852630330
H           2.00634379533823   -2.39685021459840    0.31566984176202
H           2.75585197540188   -3.67674807738898   -0.15002760190482
O          -0.91244542366961    2.50322995284259   -0.38700583117086
H          -0.43200743855830    2.57581316738211    0.44751016475151
H          -0.38548141038699    1.89123686039578   -0.93244319445455
N          -1.11699317956290   -0.29327362033028    1.57299988111969
H          -0.46060528500273   -0.82766279314876    0.93933663545296
H          -1.93814600627969    0.09759811916974    0.95792679264727
H          -1.45820912242495   -0.88514178827479    2.32213914034686
H          -0.57553565549054    0.51170565246818    1.94050542311584
