    26
        -50.47250315  Gyration_radius:  2.48728494989 Dipole_moment: 2.885
 S           0.88907389059973    0.08363981945117   -2.08483207609610
O           1.75881215277518   -0.97270615401202   -1.58180302276792
O           0.66853985212934    1.12181637803466   -1.09638966397076
O          -0.33716891445214   -0.44464906488130   -2.65139012585495
O           1.66640794079322    0.77244533707293   -3.28107824935507
H           1.64189253872495    0.08349533079948   -3.93617017586253
H          -1.34544881097624   -0.98618563365244   -1.54293466421326
O          -1.98717422655185   -1.26047873819078   -0.83632070932441
H          -2.56259790916424   -1.91112157046008   -1.24115437959961
O          -1.10426244066093    1.15794992761781    2.24283787144766
H          -1.43349087894994    1.33979768801078    1.31488057872805
H          -1.65340649008482    1.67593414999852    2.83155711496377
O          -0.82120449865438   -1.51067021072221    1.62250318393955
H          -1.28156752530202   -1.51622175832030    0.76193756361704
H          -1.00644499613701   -0.63489535197522    2.00699472565138
O          -1.83919820751804    1.45505347136635   -0.23826299379259
H          -2.19811175912312    0.58742155162147   -0.47550802402971
H          -0.95590334814295    1.47639486604448   -0.65851016274062
O           1.50628406190188    1.52382775725986    1.43812009696642
H           1.31090255364868    1.63162512515408    0.48887803530265
H           0.63468483896313    1.53584392814176    1.87431157782349
N           1.71110621982227   -1.06301960988261    1.02305246133162
H           0.73587906803389   -1.38369027544776    1.29651460763107
H           2.42976608202362   -1.63501697355728    1.45105622883667
H           1.78489143702346   -1.08684724256225   -0.03530355321761
H           1.78773935933978   -0.03974274700893    1.30701372457096
