    26
        -50.46911930  Gyration_radius:  2.58255572487 Dipole_moment: 4.040
 S          -0.21614733730246   -2.01254849597141    0.32787919640275
O          -0.11774289816498   -1.42310962242642   -1.01090428337221
O          -1.19905229266057   -1.34415895821145    1.14654447863718
O           1.09123400606145   -2.12610738294967    0.94502184667401
O          -0.73981865519941   -3.49143604163020    0.11131113370241
H           0.00277297174261   -3.92609459176527   -0.29599213049138
H           1.89458596461558   -0.80356781540345    1.34810101916222
O           2.35357635180567    0.02208047708502    1.65532448062826
H           3.07236709243555   -0.28119890670363    2.21258085263560
O          -2.68920273955388   -0.71858128964797   -1.08881448843137
H          -2.76362919822648   -0.81497269305444   -0.13207817543426
H          -1.80407058745240   -1.07954792784330   -1.27701809146789
O           2.68608349722407    1.83468633820722   -0.36507488710274
H           2.67128073703993    1.14365218064357    0.32705595703940
H           3.00371472047628    2.63405946494344    0.05752391410548
O          -0.23986215395463    1.01099115031971    1.93801511323086
H          -0.70899599467364    0.15744512419610    1.84967874615847
H           0.67908901061388    0.78111336007280    2.14156286426295
O          -2.24860770935738    1.76680811822193   -1.96803019949908
H          -2.56412008343962    0.89476984254728   -1.62894169600182
H          -2.44215699804823    1.77022254057779   -2.90614697784014
N           0.05993314017386    1.22281498486401   -0.69609233116906
H          -0.15305426051032    1.30833725123358    0.33582736968697
H           0.99949246751662    1.62107235109269   -0.86209522916979
H           0.07603095303847    0.19784592527206   -0.90988185885184
H          -0.70370001416651    1.65542462633488   -1.25535659348514
