    26
        -50.46240664  Gyration_radius:  2.40640339502 Dipole_moment: 7.419
 S          -0.66284419288001    0.25569185830284   -0.64246999018421
O          -0.29022198259113    1.65152328975728   -0.67596462203851
O          -0.64403094585986   -0.38252007270389   -1.96070510950768
O           0.41455412855670   -0.54678313065339    0.15517575647155
O          -1.92742231649700    0.02704232317642    0.05038500811985
O          -1.75109239231327   -2.43724553715108    0.84262360853471
H          -1.30575450013266   -2.34623403400111    1.68868213830296
H          -1.97718939759833   -1.51066608702962    0.56761596498180
O          -1.47073210841021    1.81840080421278    1.98186573468351
H          -1.80007930092620    1.17282497887363    1.32770952860137
H          -1.33163281549337    2.62853950844448    1.48487498721997
O           1.97774778922476    0.95709804569236   -2.03813556591513
H           1.13326215536077    1.21639567593813   -1.64165281525499
H           1.74871121239602    0.58127636817473   -2.88923428704771
O           1.98857988847846    2.55448229136414    0.53069363650601
H           2.61722985289820    2.18698043052722   -0.09795275946755
H           1.12895044352779    2.47837555828912    0.08324392804540
O           0.97165042240956    0.75897567586368    2.22287607725989
H           0.09260877417145    1.17424010433867    2.37559032719268
H           0.68159124567763   -0.05077351597767    1.03128063882941
H           1.51758270301180    1.46276854250200    1.80340272671295
N          -0.21011999571582   -2.77373684458646   -1.25487431801295
H           0.77074223682822   -2.80702313108363   -0.98952492798549
H          -0.40073579330238   -1.76664114928977   -1.67371699220278
H          -0.45125099486876   -3.51361203430341   -1.90672878078245
H          -0.82010410594468   -2.78937990863773   -0.37505991305779
