    26
        -50.45964646  Gyration_radius:  2.45279585952 Dipole_moment: 4.871
 S          -0.31688125903353   -2.00529160817405   -0.04925276794024
O           0.12673552765048   -3.24278956770573    0.50845158063487
O          -1.10340506228233   -2.05655105406999   -1.25494040542967
O           1.08358592303595   -1.26929917280710   -0.51868647094271
O          -0.87930122831981   -1.06610686193624    0.92414742544038
H           0.21411172472822   -1.41336270603436    2.17865514197428
H           1.55899457885869   -2.05066785831098   -0.78276601010048
O           1.01669346451364   -1.57068894777807    2.70630920805148
H           1.23077699513882   -2.49177244902726    2.53931908878353
O          -1.78435646690435    0.24435337486783   -2.40535215595299
H          -1.64006466690646   -0.68705695819261   -2.12479646452266
H          -0.89402743675062    0.58236168758555   -2.62738644717355
O           0.49034830677947    2.51166249548958    0.37682883765054
H           0.83619593158914    3.35890894273001    0.65922135005797
H           1.04312927439842    1.82150497001146    0.83384707035901
O           1.99469775910041    0.59861056578567    1.36927192958776
H           1.73867874577816    0.03496186650788    2.12134697164509
H           1.93422076157648   -0.00038143865857    0.61361176301476
O           0.75886895845465    1.08716909963751   -2.06675983574942
H           0.75861937188051    1.74981458993070   -1.36088067641175
H           0.99954232807107    0.25325843041711   -1.64327712613108
N          -1.85562315435543    1.15320429104585    0.01230243565515
H          -1.95039003301629    0.89718263384497   -1.03844482626081
H          -2.73123424833640    1.46807093505666    0.41377174430223
H          -1.52967919124623    0.24632073615465    0.46367577421103
H          -1.10023691474224    1.84658401368594    0.15178286537702
