    26
        -50.46652867  Gyration_radius:  2.55327284069 Dipole_moment: 3.935
 S           0.56881244029089   -1.67701468619205   -0.62192327679764
O          -0.87715704983260   -1.63189777259014   -0.74697664594012
O           1.01588219585589   -2.05990543971925    0.70642561692889
O           1.17970653557207   -0.41041131068683   -1.03710116442266
O           1.05997262057919   -2.76958989903289   -1.63200570320074
H           2.02674142916007   -2.75108315427134   -1.49965893677096
H           0.49012078242730    0.96223051736152   -1.39397960985749
O           0.02703182228333    1.82251891456762   -1.59240172884530
H           0.50273562505652    2.21630314825955   -2.32481024520173
O          -2.26042014486279    1.28872730435383    1.71806867708471
H          -1.57869380027573    1.99226394432339    1.63372696340800
H          -1.75408838280973    0.55077892277300    2.09521828931004
O           0.07920383853810    2.43172477418526    1.15851180090362
H           0.16694941047321    2.37324333180080    0.19597975086893
H           0.39390849142959    1.58385375505543    1.50479329146953
O           3.37501884570151   -1.95486587566548   -0.62703474619133
H           2.99645988489405   -1.09606271070329   -0.86287809383210
H           2.96089431873884   -2.17220735350918    0.21913742203363
O           0.00124747717463   -0.20167317779112    2.23665275935118
H           0.31740154193668   -0.42228182623469    3.11495175389001
H           0.34476044009577   -0.91286813610379    1.64787263928455
N          -2.23562452867384    0.57755341766903   -0.79512773784721
H          -1.73771507744501   -0.36724951943982   -0.78683705813568
H          -3.11470385261183    0.51827864461314   -1.29609962068396
H          -2.37237850944773    0.87352555921271    0.23082955197107
H          -1.57606634426386    1.23610861776359   -1.24533394878008
