    26
        -50.47073147  Gyration_radius:  2.4841555935 Dipole_moment: 1.248
 S          -0.59748390604112   -1.43511835723145    0.94732140575156
O          -1.36111047792645   -0.30485639535918    0.44898112760545
O           0.78849153070059   -1.06951713606496    1.20775393041195
O          -0.71802565245850   -2.62512631082450    0.13604415546759
O          -1.24773696123259   -1.78252536753838    2.35515348680888
H          -0.98565493717269   -2.68304644825883    2.51860235175684
H          -0.20407611275557   -2.22059849209004   -1.35672339121998
O           0.14325157430624   -1.91230471412285   -2.22830016684543
H           0.16822083942956   -2.68724617373677   -2.79268189418231
O          -1.56683130021490    0.30685156939238   -2.40982511443123
H          -0.98780318459698   -0.45037870049566   -2.58615470640739
H          -2.00199910472525    0.09072522709502   -1.57765044828750
O           0.73116760371578    3.22982318489192    1.23743909388274
H           0.41664686461057    2.52212896592163    1.84620262876613
H           1.61816134960779    3.45143732561835    1.52437316762535
O          -0.05161084776667    1.04312180487742    2.57889054074623
H          -0.98516855881852    0.84139975581402    2.47667369053612
H           0.40925113217660    0.28310969725803    2.17495839317253
O           2.06102508688735   -0.34159524213619   -1.03616222123526
H           1.59383760636665   -0.92982704813719   -1.65310648601016
H           1.83672543684325   -0.68668158891434   -0.15063413502742
N           0.19721742259871    1.50760811892318   -0.74440508482580
H           0.42267953569204    2.35133219124920   -0.17498805940274
H           1.06228372432223    0.93008804463759   -0.94834050556061
H          -0.42700666062954    0.88041781240078   -0.17977445573490
H          -0.31445200291928    1.69077826683102   -1.61364729336038
