    26
        -50.46513963  Gyration_radius:  2.5925524561 Dipole_moment: 4.936
 S           0.55394924977022   -1.48813179301898   -0.06233872808227
O          -0.82988277706877   -1.11981123211560   -0.32601238103201
O           0.73750572778265   -2.22156449352984    1.16678768229336
O           1.41816903531062   -0.29701859062602   -0.11332520823058
O           0.97794439212834   -2.39548197691782   -1.27109083132680
H           1.89021493431547   -2.65694455139321   -1.03985459360230
H           0.88021341846855    0.26100348300445    1.43560470365345
O           0.39014857436872    0.31970363359434    2.27532761751372
H           0.22620584731249   -0.60304339259731    2.49854282892329
O          -2.78169730289914   -0.36306054101870   -2.15752657691076
H          -3.13174625843260   -0.99726585643980   -2.78404836692638
H          -2.14701609843622   -0.84753077030031   -1.60634440546997
O           0.98242218372539    1.95734663533658   -1.40039321906476
H           1.20968419198978    1.07605124550050   -1.02147626325494
H           1.65460411754834    2.56209961294431   -1.08258983903590
O           3.19836837276481   -2.49343475450658    0.17399131477743
H           2.49187597869149   -2.60905933828615    0.83294644477490
H           3.33386972593852   -1.54224729015216    0.12038832244921
O          -1.56578890887978    2.13366863332863    2.07350829558413
H          -0.90030214330442    1.43118942931733    2.25616076951383
H          -1.27106361791459    2.91063493939583    2.55033536507696
N          -1.48261406435991    1.43072190253924   -0.50614897098815
H          -1.22072254091255    0.41871054372554   -0.34327052955831
H          -0.64330417664474    1.86455650977705   -0.94772318556770
H          -2.27980100496223    1.40990991915696   -1.14236446799492
H          -1.69123686631431    1.85899808329497    0.42091421250859
