    26
        -50.47202054  Gyration_radius:  2.36510230731 Dipole_moment: 4.560
 S          -0.37241157322716   -1.30445522818533    0.19540925571204
O          -0.93446228218103   -0.32379994257197   -0.75123909684811
O          -1.22035406183375   -1.46294379948270    1.34721005703788
O           0.99620083286666   -0.90081873420727    0.54617445199447
O          -0.28906490402686   -2.66277254761810   -0.54540843947071
H           0.54181386177585   -2.61541247466552   -1.09118736816615
H           0.69969985870492   -0.09639124867677    2.08535205805659
O           0.23706810086401    0.49073249312892    2.71312216620479
H          -0.51820821208749   -0.02420344860513    3.01469353933737
O          -2.76135362787686    0.72254985792314    1.56457003201257
H          -2.27378903007388   -0.11922721711122    1.47961762170611
H          -3.68258451364047    0.47657256424838    1.65558519905776
O           1.94766481873626   -2.06934035147291   -1.71034840445397
H           1.67948142622426   -1.31584688076010   -2.26914282572318
H           2.16064566890612   -1.68930158653174   -0.84656975561387
O           1.83467742562743    1.45180597649291   -0.54252021098790
H           1.73688453602874    0.59772726573517   -0.07893215996046
H           1.67514777383510    1.24553750843833   -1.47401643021768
O           0.69307359268984    0.13393204804095   -2.72045664862427
H           0.01295954946365   -0.03577145092154   -2.01790417385832
H           0.22401308748502    0.13943751818087   -3.55589899792431
N          -0.49015807177791    1.91403505788720    0.59780305444837
H          -0.93387869416702    1.12766594132660    0.06207123396918
H          -1.09984587332605    2.72363078752406    0.63243847832803
H          -0.31073804624834    1.52638418573528    1.56749037189377
H           0.44751835712243    2.07027369607582    0.14208699219565
