    26
        -50.44612500  Gyration_radius:  2.48562891183 Dipole_moment: 2.151
 S          -0.02053417715085   -0.22263207786419   -2.22173981833498
O           0.74657690894448   -1.42805143471950   -2.40939955226388
O           0.38432904355775    0.58476375981142   -1.09479818590695
O          -1.46943342397433   -0.47694409030336   -2.18097438668076
O           0.22036688299903    0.67029416607915   -3.51745192121906
H           0.08772015988307    0.05301668174195   -4.23065192905983
H          -1.94916118872960    0.02411616006306   -0.98952228456253
O          -0.97353353993777   -1.25270106912874    1.55961232095862
H          -1.47315710317598   -2.03566930684603    1.79448208750617
O          -2.24948278407572    0.33433347737554   -0.00266476537058
H          -1.83146554880581    1.26018650605878    0.18895974800116
H          -1.76417083492442   -0.30827004137592    0.62692761705414
O          -1.22098795867889    2.51613985291223    0.79641460978597
H          -1.80221492125224    2.99560829987155    1.38984677357255
H          -0.52578849283717    2.08396670595658    1.36829747607284
O           0.38054035922941    1.12036095462291    2.32707148277726
H           1.19862297347833    0.98676924348402    1.80670986532261
H          -0.07442009692255    0.26805371932461    2.29887384761317
O           2.40274571143624    0.68266771297180    0.56823526469455
H           1.69093487127055    0.64270665801873   -0.11296090173793
H           2.93121935322740    1.45103873814511    0.34764150308176
N           1.12902235825247   -2.04807236485422    0.30878399402708
H           1.87750804451498   -1.41897124398395    0.58074186836507
H           0.97978694581360   -1.90474216132429   -0.69314946660762
H           1.45637868594556   -2.99685888683213    0.44253675291549
H          -0.13140224809941   -1.58110996922856    1.04817800998999
