    26
        -50.45997483  Gyration_radius:  2.53998086915 Dipole_moment: 8.477
 S           0.81495950021488   -0.98535401296710   -1.49595269386223
O           0.80352657777318    0.31933745573340   -2.14202172534238
O          -0.42926599512950   -1.69516781665237   -1.55237619775622
O           1.30203616273957   -0.83463460774568   -0.10674317447128
O           1.88915266807579   -1.86803153986478   -2.23372666571885
H           2.71010639995437   -1.36460622681467   -2.14224080893932
H           0.38180755224217   -1.12227251092952    1.11677815081777
O          -0.17552239198813   -1.16305773048047    1.94879048948005
H           0.34902085132140   -1.64657430209868    2.58861079057077
O           0.94678692643258    2.10770697513173   -0.28247491278851
H           1.85906904237044    1.95909821735754   -0.01877224087970
H           0.79641718422486    1.49205518780631   -1.05009643349584
O          -2.38609364379355   -1.56209003720159    0.22702128179811
H          -1.79529524665018   -1.64797541944234    0.98703709509402
H          -1.79498068521030   -1.67784096537165   -0.54575490714294
O           3.39998923704895    0.23288624425013   -1.32319718222476
H           2.78621099708582   -0.12015820793719   -0.65425351612585
H           2.83973919546891    0.71589417575924   -1.94317352090134
O          -3.13693456305867    0.92844573516645    0.31635195999113
H          -2.92148065298950   -0.03561868246121    0.16230383850742
H          -4.03584615548995    0.95168130600407    0.64633782016461
N          -0.84164544667133    1.41631798032830    1.52158741543500
H          -1.78903595949806    1.34406900358594    1.05269943353031
H          -0.86725683533376    2.07547639613884    2.29203617719428
H          -0.57904462644769    0.45783956172400    1.84302578181442
H          -0.12642009271339    1.72257379098686    0.78820375526354
