    26
        -50.47069370  Gyration_radius:  2.42112864815 Dipole_moment: 3.229
 S           0.11176978691555   -1.69286035446540    0.77368598461441
O          -0.15935048229051   -2.76209993784522   -0.14986045075723
O           1.38550523080690   -1.02210762637796    0.53668364316723
O           0.23506722002276   -2.36946010472676    2.20993863247414
O          -0.96572334253387   -0.72525507971150    0.90268992534172
H          -0.64987263466689    0.53147656449052    1.91799880595513
H           0.50196416367353   -3.24959079957334    1.96875676930460
O          -0.48085381933281    1.36980001201140    2.40917379826244
H          -0.19552604430433    1.10947498690387    3.28565091706914
O           1.25745302154047    1.61005314288165    0.31850763785464
H           1.42628452582154    0.64519061199558    0.40828069541595
H           0.76675937116357    1.83162450105605    1.12967957283623
O          -0.23551623786033   -1.07132605979161   -2.20303747607529
H          -0.34566653963957   -1.75803667343960   -1.51712997490762
H           0.72682054856895   -1.04491597174908   -2.36989076880177
O          -2.67163477273919    1.29337850180773    0.40182327568221
H          -2.38963005837105    0.37856195265569    0.56925219730440
H          -2.34577180984404    1.78772610978747    1.16241489639923
O           2.44330457750931   -0.77891204813155   -1.90722769919259
H           2.90058997429537    0.06253575454763   -1.85290080337597
H           2.19087368211169   -1.00270202511755   -0.99027075105653
N          -0.70895388229607    1.39402475812378   -1.42182136940972
H          -0.75505166641158    2.03883792810670   -2.20267832164722
H          -1.57072979480252    1.44791502836771   -0.82260125629290
H          -0.60074105254651    0.38756635941057   -1.76610087247810
H           0.12863003519057    1.58910048875077   -0.79101700767177
