    26
        -50.46072468  Gyration_radius:  2.67115763488 Dipole_moment: 3.015
 S          -1.57651609749238   -1.49245027331178   -1.65588116906734
O          -2.51429171277505   -0.98237477358659   -0.66474997499313
O          -0.26913915712580   -1.72653063553984   -1.03635672611743
O          -1.49813909193263   -0.71079522444469   -2.86157436882928
O          -2.11207668802830   -2.92747992001665   -2.09728379310727
H          -2.39408678088831   -2.77096025688925   -2.99345269313671
H          -0.01217991570215    0.90989814140384   -2.35619707294456
O           0.40705938159742    0.74119562863956   -1.50622214907662
H           0.16010615217190   -0.19844726187957   -1.33071231800080
O           1.93922039308609    2.19581392473645    1.92391629063331
H           2.02739921139724    1.77625069105224    2.78089521133155
H           2.35132349139114    1.59813031194348    1.27848097947139
O          -0.44717313519049    2.30297067680118    0.60152295720296
H          -0.16986241972148    1.92969556756888   -0.25505046624473
H           0.37687670318680    2.46169615803180    1.10027855758030
O           2.60650565928181    0.32464829544320    0.02110034938408
H           3.33030247583475   -0.03954586495321   -0.49030828002376
H           1.90088828127302    0.55127137095601   -0.61678409911326
O           0.83941344042248   -1.39966798100524    1.35915597792451
H           0.48824714956613   -1.78254515241084    0.53069139918067
H           1.56770404907718   -0.82958884707164    1.06269707503572
N          -1.41168966686031    0.01639624977943    1.47090812550109
H          -0.53087680562994   -0.55073462705767    1.60428925121594
H          -1.92252201351524   -0.40151692717906    0.63183184647389
H          -2.00637063074563   -0.00445963535759    2.29114980176251
H          -1.13012227276841    1.00913037428888    1.20765527796575
