    26
        -50.45894323  Gyration_radius:  2.43580175868 Dipole_moment: 2.381
 S          -0.74547772205266   -1.06774283023805   -1.66680382863169
O          -1.70574989330966   -0.74924279036441   -0.61807560309155
O           0.24960109819420   -2.02617744466543   -1.26729272492567
O          -0.17043353665012    0.15298580623848   -2.23219122296954
O          -1.57526124626421   -1.73502406484257   -2.83659428725326
H          -2.23053080694787   -1.07355575321401   -3.03303369711363
H          -0.12646851880134    1.46334158402171   -1.52898276097842
O           0.16495898434746    0.68075887399444    2.47140741812983
H           0.28731135260493    0.68598962323755    3.42088093987508
O          -1.80528781078922    1.50634838808238    0.75920493033799
H          -1.23096685333787    1.30311750167798    1.52165445340774
H          -1.94420669071311    0.64800355627145    0.30206774026654
O          -0.09025646397296    2.27934377010427   -0.90144993195967
H           0.78795507119398    2.11633650292780   -0.31091998306735
H          -0.87418665870299    2.11112968961021   -0.22527783399619
O           1.82427880827293    1.62955656572996    0.55446172888401
H           2.13996770551850    0.81745527437131    0.08796857495522
H           1.34131864976591    1.32040352145178    1.34728622627053
O           2.37701068400998   -0.51428271915086   -0.90053196712482
H           2.57388601163497   -0.20310201472606   -1.78646355912272
H           1.62218004119716   -1.13161149357329   -1.01035736292441
N          -0.17612643650463   -1.75303033160145    1.57626983360882
H           0.65191441539553   -2.14198698756025    1.13963219587882
H          -0.59493494551268   -2.48217833779477    2.14078587150741
H           0.06730913591066   -0.28616244398051    2.18714404421511
H          -0.81780438448598   -1.55067345600604    0.80921080582058
