    26
        -50.47165520  Gyration_radius:  2.51564221635 Dipole_moment: 0.611
 S          -1.95844621997728    0.35332858132188   -0.35153983195901
O          -1.37824305752300    1.66279238642898   -0.14056780478865
O          -1.28985501179493   -0.67201476755636    0.44870721290682
O          -2.05372571917803   -0.03714192154898   -1.74221475857222
O          -3.44082276390346    0.44172632222229    0.19507903042865
H          -3.81274500483131   -0.38110810673273   -0.10412505228677
H          -0.57732794490938   -0.36363666553996   -2.29006920573993
O           0.36326683421875   -0.52541908036080   -2.55841754766534
H           0.35718178703362   -0.58913240015332   -3.51509551935375
O           1.17947535832793    1.56914650831379   -0.99769614852789
H           0.26807758692748    1.86686688347933   -0.82573228097647
H           1.09100893575621    0.86540219871448   -1.66438886090611
O          -0.54839616515212    2.18086518493253    2.36657475108677
H          -0.92131624890527    2.04471248616947    1.47281732966573
H          -0.99445932693784    2.94756756119978    2.72692003740863
O           2.50333769276490   -1.96881203871044    1.20673871561604
H           3.34200880156226   -2.09327634654197    0.76124258218691
H           1.80790070284159   -2.29678126091699    0.58555190864173
O           0.55039340694956   -2.43619090354740   -0.54641963259170
H           0.67848361889071   -1.92247043147168   -1.35896259956344
H          -0.22106940841021   -2.02212497143512   -0.12567700733118
N           1.03723783954558    0.27430896943917    1.31609123594560
H           1.30170795480776    0.82871254140800    0.45680019513038
H           0.88874258657544    0.91428881894951    2.09996955417602
H           0.10434356721997   -0.15273524022174    1.09099104884154
H           1.72324019810654   -0.48887429783926    1.49342263824737
