    26
        -50.46506602  Gyration_radius:  2.69177967944 Dipole_moment: 4.560
 S           0.49908001854363   -0.98440667375134   -0.38524719212905
O          -0.90631091224794   -0.83984346842453   -0.81210584257523
O           1.18249442329063   -2.03082403294745   -1.09056221976801
O           0.43206864544677   -1.34440567948388    1.14558549295772
O           1.17349906587277    0.30819058148355   -0.41994274830383
H           0.71309149496909    0.95814407608797    0.98165681836845
H          -0.23169766617572   -2.08900826098380    1.16739053406820
O           0.27818094917042    1.39582940795919    1.75926806712984
H           0.30914569571367    0.73482893488056    2.45441771087533
O           0.45831055071224    2.67130970123899   -1.53242309480698
H           0.92480504050383    1.82533138679321   -1.40360137079775
H           0.81840224922896    3.26162304004691   -0.83873160518335
O           1.35661899102700    3.75595696930997    0.78851302696229
H           2.30998336387019    3.70351977613239    0.87528388649098
H           0.99268534922866    3.02636956834092    1.31681174911410
O           0.26510829752046   -4.49943520215938   -0.84394443832570
H           0.73222798491992   -3.64252763043001   -0.95354835565840
H           0.12702087687469   -4.83824473639756   -1.72991219997461
O          -1.42494793095314   -3.05212479001703    0.65709762978165
H          -0.93259242727504   -3.77885534295342    0.22144588111146
H          -1.61902247749561   -2.41228747497142   -0.04464376097917
N          -1.53462476072667    1.59199474337311   -0.25655735688604
H          -1.38385330237302    0.56272381676013   -0.53835712014994
H          -1.17843188646293    1.67992610372994    0.71012797314505
H          -0.85955540724696    2.15458995541327   -0.88036452416132
H          -2.50168622594293    1.88162521097424   -0.34765694032054
