    26
        -50.46869646  Gyration_radius:  2.53639364922 Dipole_moment: 4.043
 S          -0.79490177330585   -0.17343831535283   -0.48490742631691
O          -1.61196593633133   -1.35762634736989    0.13511373456058
O           0.25327830829432   -0.82909303080684   -1.25513350602518
O          -1.66983026101765    0.65979303517440   -1.27167893858455
O          -0.22530071206030    0.56594198924309    0.65382962268140
O           1.16270447071713    1.54390121635659   -2.01630901606076
H           0.42118035183537    2.14085391805867   -1.90190648180612
H           0.79124711488288    0.64904330599380   -1.90669761294091
O           1.02793905827473   -2.76344780676783    0.32524052138805
H           0.74050699173657   -2.18908286499280   -0.42084720222781
H           0.20834931942824   -3.04565843257823    0.73829382424375
O           3.41304542822458    0.65535256940129   -0.86244389624969
H           2.66986076546636    1.16437320247595   -1.25138851004601
H           3.67039628104330    0.03143131186215   -1.54483640999326
O          -2.50259748559109    2.11833572764784    0.75924581921643
H          -2.31304956046084    1.77705253018908   -0.13877868237554
H          -1.66070479986017    2.00957983881707    1.21624994357955
O          -3.67147373973666   -0.20275977301141    1.20911381885826
H          -4.39693338533273   -0.24740843402943    0.58228261649411
H          -2.41784516465680   -0.97885672324506    0.58978062023116
H          -3.34479805768028    0.73367798226585    1.18026109725653
N           2.07788417337025   -0.45817674230427    1.16096636350789
H           1.86985404095541   -1.46842152743855    0.97107202456707
H           2.70852550050086   -0.06549171577874    0.41012406577900
H           1.13146760204056    0.03834753045671    1.03662035250159
H           2.46316144924952   -0.30822243425568    2.08673325772819
