    26
        -50.47250233  Gyration_radius:  2.48724751261 Dipole_moment: 2.862
 S          -1.89353537747240   -0.87704855730533    0.88805556441231
O          -1.55434217366789    0.48000292998084    0.50442759772782
O          -0.98377135046864   -1.40044494415233    1.89961258988316
O          -2.03183895929803   -1.77923890648053   -0.23927170471318
O          -3.32337921667809   -0.79910080980156    1.56569914127140
H          -3.54781484797542   -1.72136555558638    1.62550209615138
H          -0.73443956078698   -1.80731696445459   -1.16467811678888
O           0.05574191241761   -1.76466181653996   -1.76456416844434
H           0.07663088516476   -2.60057817161251   -2.23271464657544
O           1.41532539075693    1.98185579235007   -1.28799092410540
H           0.54845000174830    1.61699713979905   -1.63133805921793
H           1.69574928136291    2.64880677247781   -1.91488844446278
O          -0.81654722314670    0.86516405554460   -2.03406225160267
H          -1.24827227114821    0.78722303132289   -1.15957687398722
H          -0.55528308523087   -0.04081405363198   -2.25536443438971
O           0.36088017481577    2.23189967626041    1.24621194341828
H          -0.49594750942752    1.81136473522608    1.04668222782452
H           0.78908610819869    2.34768325245547    0.37824632266225
O           2.21665059164462   -0.56181934720092   -0.59971870075452
H           1.51149615421695   -1.06888193333987   -1.04465877125408
H           2.11527396941776    0.35313908135217   -0.91862205683457
N           1.30190210290567   -0.14829551762317    1.84270162454466
H           1.76645473440018   -0.41141211542978    0.92429372292716
H           1.91008314874158   -0.31831664270143    2.63520157424651
H           1.02164094727505    0.87560468420427    1.76153653104181
H           0.39980617224841   -0.70044582511164    1.92927820701955
