    26
        -50.47113447  Gyration_radius:  2.40828114267 Dipole_moment: 2.403
 S          -0.43904804457936   -0.88968278180995    0.99599118658679
O          -1.14644911216136   -1.06169497562713   -0.27458870333737
O          -1.11478551920403    0.03269800101255    1.86994222506218
O           0.95425325053490   -0.49631512039499    0.75478263698002
O          -0.40139989891743   -2.28723292888924    1.69382923573624
H           0.16566390494019   -2.82004063887657    1.11194490451915
H           1.31955449989482    0.52435293866529   -0.60711957242612
O           1.26965480884040    0.92041524922290   -1.49897429725419
H           1.18362842882046    0.13759058720932   -2.08133350388784
O           0.51835224098380   -1.52626638512490   -2.35075326347272
H           1.07636150374107   -2.24541212403300   -2.03906360318031
H          -0.19067841171168   -1.46017064516570   -1.68382370157519
O          -1.82340247328046    2.58087311165212    1.04869448479064
H          -0.95482413528214    2.86428488068890    1.38379210615025
H          -1.97422225722450    1.74260311806686    1.51444851912482
O           1.60256621595945   -2.88623989106551   -0.01758402577800
H           2.41364636006134   -3.21840261246986    0.37240615248519
H           1.55647222543408   -1.92726229798492    0.19761624693745
O           0.68320670657495    2.10408604491311    1.98015741157021
H           0.17349217870546    1.28939160706709    2.12320271128690
H           1.49747250655745    1.82403155941335    1.55786766189573
N          -1.29268208402201    1.38257462467672   -1.23363444953895
H          -0.24527681671816    1.41884154107772   -1.44193093200766
H          -1.53778262078178    2.00149989678118   -0.40074095336577
H          -1.84894867185299    1.60703764532732   -2.05160878686215
H          -1.44482477587781    0.38843958531171   -0.92351969039466
