    26
        -50.46740439  Gyration_radius:  2.53243965915 Dipole_moment: 1.575
 S          -2.06877264615631   -0.94793460031144    0.14860240465687
O          -1.81879514534902   -0.71849657341042    1.56479698925982
O          -1.63702156571377   -2.23462794336877   -0.32864806536598
O          -1.51821027892169    0.14137594838031   -0.66371450467814
O          -3.64326527995084   -0.86561321825336   -0.00488431378919
H          -3.88232269113835   -0.41352789416379    0.79801072855037
H          -0.28165719057056   -0.18404117504823   -1.64138174373302
O           1.01324697459573   -2.29021990913062   -0.29199272053547
H           0.05708755552011   -2.50782925298920   -0.29163763797444
O           0.50499157414044   -0.39350769191777   -2.20765910300901
H           1.11293286574916   -1.72033535367355   -1.07242641126233
H           0.15455245866697   -0.59628530954098   -3.07622125181406
O          -0.97112903503254    2.45732720233763    0.49756445918255
H          -1.22831483537827    1.59004654658007    0.11672002420618
H          -0.99457501564046    3.08160373969203   -0.23007340227889
O           1.52940490556421    1.75593045460261    1.17611077077609
H           1.91441511134321    1.73461794569683    0.27718851090211
H           0.63767236384175    2.14978388314961    1.05786067710298
O           2.34856721841083    1.44068666398943   -1.39252905314381
H           3.19814645224514    1.03527717358130   -1.57117279797486
H           1.67112718498414    0.83537874396336   -1.74881687594741
N           0.79655298480021   -0.67424679891941    1.79415054711470
H           1.04491803941716   -1.34028229922426    1.00852100564312
H          -0.25828769007572   -0.64814233286461    1.82211654332450
H           1.16281054665184   -1.00471872021007    2.68022938889056
H           1.15592513797593    0.31778077105507    1.57928584189636
