    26
        -50.46321750  Gyration_radius:  2.49786621068 Dipole_moment: 2.386
 S          -1.55780809284056   -1.32223054380903   -0.87316035453233
O          -2.19805370803588   -0.83944363200659    0.34179121287133
O          -0.10136907577309   -1.30636795160599   -0.71466610836325
O          -2.01126057539823   -0.68341977589025   -2.07683227592861
O          -1.93747602570707   -2.86477726219291   -1.00928291244513
H          -2.66717558509804   -2.87245732798190   -1.62247187261141
H          -1.23245278062227    1.40879172413751   -1.58813869294974
O          -0.51966852407171    1.33912496262706   -0.94615505123072
H          -0.39756940098071    0.37687899242414   -0.84772919509782
O           2.12712715815619   -0.65513025889191   -2.15245148771507
H           1.87914373475214   -0.58232768327706   -3.07490788148934
H           1.34950143583530   -1.01535864012335   -1.69105677962192
O          -0.20564419845066    2.56364119405667    1.46249563218424
H           0.74870177945285    2.67939779690340    1.43211980621374
H          -0.46730823112375    2.31223682036970    0.55634566270545
O           1.54042918513616   -0.87596387266355    1.39131172960914
H           1.95338932810676   -0.08827905991112    0.97189955761085
H           1.09792017040107   -1.32534216039227    0.65041131505360
O           2.20599770149990    1.24142467003585   -0.15970948833592
H           1.34478691965699    1.50693434895177   -0.50969669061453
H           2.55852564401477    0.65724743679550   -0.85114965447277
N          -0.71338756473589    0.07003445803737    2.29512945489791
H          -0.62163159706509    1.10473688093493    2.15065176916503
H          -1.37624033111231   -0.31038048717535    1.55602747724096
H           0.24693030776314   -0.36298959483086    2.08375093204396
H          -1.04540765379002   -0.15598100448022    3.22547389582272
