    26
        -50.46858862  Gyration_radius:  2.44352568681 Dipole_moment: 4.171
 S          -0.74633166935779    0.09320712094129   -0.84423352698550
O           0.58601721105818    0.05961006238353    0.01905160980826
O          -1.27545302200750    1.43502611340757   -0.67872445003528
O          -0.38139109444932   -0.25921529686980   -2.19336112730234
O          -1.59691734953380   -0.92258852038078   -0.21639041951793
O           1.29989186372445    1.42090031016510   -3.35558577568149
H           1.90050364649555    0.89415338305435   -3.88480541635598
H           0.60282807870298    0.80606299916553   -3.03767175129299
O           1.35251219501030   -1.96239597578177    1.75787273902840
H           1.79600939833421   -1.18363375884922    1.40632779763295
H           1.04277319690480   -2.44267309886800    0.95679727089288
O           0.28429042027407   -2.77506997053004   -0.58747310883011
H           0.69629225139229   -2.50495619436154   -1.41099574663544
H          -0.51366195037989   -2.21900007717393   -0.52114894760550
O          -1.20758294774662    1.76053792941408    1.92988054162416
H          -1.24245984486663    1.67809280223717    0.94714636088123
H          -1.80776429914523    2.47241498688334    2.15637153406102
O           1.29294597857433    2.36439709328080   -0.84973217272061
H           0.34714260878662    2.56920342198839   -0.83798920370800
H           1.02821714214301    0.92652904856480   -0.22104055603764
H           1.49528248218713    2.18508929197659   -1.79119504359145
N          -0.99852967533190   -0.88667033735610    2.29320547629895
H          -1.37639393997604   -0.98587187249187    1.29926450618426
H          -0.97001078169367    0.14192426306412    2.44284286304182
H          -1.58734682760441   -1.35487878132624    2.97329357049064
H          -0.02086309151119   -1.31019493254494    2.24829298636427
