    26
        -50.46862049  Gyration_radius:  2.50707336911 Dipole_moment: 3.956
 S          -0.36281400046882    1.03604401875008    0.23531483488332
O          -1.04780594587690    2.17178152652091   -0.54929069242852
O          -0.73515957510952    1.16629021645263    1.62723404462627
O          -0.86027780369612   -0.24111396923342   -0.31930843640069
O           1.08125345498636    1.13269433577291    0.04333391790088
O           0.26181562563822   -1.69760997523763   -2.25026279629924
H          -0.30864932258269   -1.66984850228908   -3.02055722585098
H          -0.19140244346781   -1.16325317983887   -1.56610798245859
O           1.76987775484932   -0.13729389526157    2.21864962643104
H           1.68297551423745    0.37835410002340    1.38205127053124
H           1.36462914266909    0.42342136636622    2.88624027650185
O          -1.94692694689749   -0.65647703304714    3.08988059966653
H          -2.89011977805255   -0.59093505081624    2.93339696445716
H          -1.54636420131246    0.12587819166331    2.64163839839269
O           1.84286051887448    0.52338454552835   -2.44075975198640
H           1.77134339011559    0.77689011876932   -1.49958898097263
H           1.53848586466356   -0.40247321674016   -2.47214066464594
O          -0.34376196253880    1.80952472889858   -3.00046079578369
H          -0.82720109706146    2.02240096507383   -1.51756991400122
H          -0.12121847149208    2.66428797087507   -3.37450322079392
H           0.52541948272216    1.31821485434462   -2.89568061038292
N          -0.12616313046185   -1.84504844821696    1.57354310914108
H           0.73976454840789   -1.31957720842819    1.90052186262929
H           0.05655015297930   -2.82394349805752    1.38148536048603
H          -0.87563205233354   -1.68921424656114    2.28609329998802
H          -0.45147871881084   -1.31237870530718    0.70684750637424
