    26
        -50.46652864  Gyration_radius:  2.55417280897 Dipole_moment: 3.940
 S          -0.88032041475587    0.48544158536464   -1.58669469960126
O           0.51911960171377    0.27315219424485   -1.91063118366898
O          -1.15075198296199    1.81490948167729   -1.06609959468228
O          -1.37911447757642   -0.54756253821744   -0.67368515452129
O          -1.66902177087844    0.32206296233462   -2.93072876539521
H          -2.59009627005020    0.47626055927650   -2.64730135705761
H          -0.57874783252289   -1.66292751787346    0.10285405352980
O          -0.04341085192868   -2.34355421181340    0.59692939954906
H          -0.57487352369211   -3.14055973880477    0.60836546433412
O          -3.66107274889573    0.80879887091828   -1.24939047120837
H          -3.14228451648040    1.59669850195751   -1.03711050198182
H          -3.22123505685799    0.09692186311741   -0.76348805711912
O           0.33560800966544    1.94241096731173    1.07809829712908
H           0.14241327184265    2.80671372709802    1.44644750448867
H          -0.19036834537388    1.88798410714271    0.24681750311086
O           2.65952731037563    0.53298039568228    1.53753316144515
H           2.07445080900420    0.09845479478736    2.19750418114518
H           2.12560064482955    1.29289858488907    1.25313507119538
O           0.43394090402292   -0.44656732899009    2.62489289391126
H           0.18395535429323   -1.19266196513346    2.06050605246494
H           0.06959289809700    0.34211874001574    2.19715231638387
N           2.13379834214872   -1.10957474909735   -0.42387545987417
H           1.50303707767336   -1.81705084826260   -0.00794154102567
H           1.52298871707134   -0.53250952633103   -1.08302724979633
H           2.47303211635311   -0.44912810459827    0.35573389447536
H           2.90423272488392   -1.53571079669583   -0.92599574723047
