    26
        -50.46211460  Gyration_radius:  2.65497782526 Dipole_moment: 4.122
 S          -1.10745864135154   -1.92556544330508    1.43307357277665
O          -1.63838191930881   -0.96759042329356    2.37868955815579
O           0.25904266856892   -2.32672158667900    1.67045097670403
O          -1.29345122410092   -1.44892394681275    0.05047504778033
O          -1.99571184349546   -3.23557424747063    1.57144508560911
H          -2.84897842576718   -2.88731476693104    1.81236056892830
H          -0.19420138209476   -1.30316939082206   -1.28899576659073
O           0.58329115947963   -1.05128539549723   -1.82348629935488
H           1.33948446258168   -1.25730927228233   -1.25181711597487
O           0.72288516148868    1.53454761517028   -2.14516178116726
H           0.60328140508447    0.54404591979226   -2.06274485034121
H           0.99432367055792    1.68543495066898   -3.05116427340963
O          -1.35576261822914    2.92715061215061   -1.05849832850591
H          -1.06012099696185    3.83541276624040   -0.98317080498816
H          -0.66022294922013    2.44867963512616   -1.55514644065050
O           1.70532605206804    1.33312712798855    0.45775060439988
H           1.62057705107719    1.55388152926869   -0.48317425064393
H           2.03099402619016    0.41130774352165    0.48510824253834
O           2.25023343097007   -1.31929272232379    0.36423015980495
H           1.48918299259461   -1.71628900685069    0.86704226129947
H           3.03261905914189   -1.76703143658126    0.68932231621021
N          -0.90551095734301    1.01629794928731    0.79511290814123
H          -1.09567218436254    0.10652119779252    0.29361917412094
H           0.14392791984517    1.17616626321041    0.80898214804423
H          -1.34708895648885    1.80811130074650    0.29177269801011
H          -1.27260696091408    0.82538301788800    1.73392458910715
