    26
        -50.46349141  Gyration_radius:  2.51705295168 Dipole_moment: 5.138
 S          -1.82958249113337   -0.47546861894311   -0.20528167653784
O          -1.20644446102570    0.78530922080323    0.26998699155487
O          -2.06929493201335   -1.36771301204041    0.89082367545658
O          -0.98451222216445   -1.07763677783603   -1.24555881425225
O          -3.17495689363230   -0.07414775524562   -0.87090622015509
H          -2.93549741800923    0.59628540599073   -1.55554349793021
H           0.07576938508280   -1.85668838874940   -0.36702526863208
O           0.73056595074922   -2.23892285341446    0.28010111667266
H           0.41715559327459   -3.12969510846835    0.44778162438606
O          -2.22713743130655    1.82711249641240   -2.45727185961746
H          -1.26321055045380    1.66872710102412   -2.47372182023565
H          -2.35846724266706    2.63005701861253   -1.94763728933511
O           0.36088745572718    1.09714893869129   -1.80856203894710
H          -0.06026176855937    1.28349319753457   -0.94523545826665
H           0.04449410462099    0.19064062476088   -1.98348989531470
O           2.62737129413151    0.88816311320402    2.01846564020331
H           2.66576792193992    0.66521659955749    1.05320412121408
H           3.46341506783837    0.60484225131116    2.39079535120075
O           2.48972991576212   -0.03080786465953   -0.45352019340985
H           2.08813730804320   -0.90319674931084   -0.35984543820697
H           1.89498513766923    0.47825656883968   -1.03652315657856
N           0.25840403587437   -0.31139458711972    2.10821583730418
H           1.16163838783811    0.20129542138557    2.27376378129020
H           0.45001464343517   -1.18147215907315    1.55310686482538
H          -0.24844617997648   -0.53340845145411    2.95828494737736
H          -0.37052460100601    0.26400435809735    1.46559267594533
