    26
        -50.45854059  Gyration_radius:  2.42995785097 Dipole_moment: 5.888
 S           1.24442596139613    0.31299504466938   -1.67227864767681
O           2.63480104427418    0.48279909400781   -1.94781650066527
O           0.86909702658915    0.77259078902369   -0.32364893674251
O           0.99910298844841   -1.30461077151470   -1.57911711056155
O           0.28675609425761    0.74842650475785   -2.65542751050713
H          -0.76655357944302    1.75139726959545   -1.91228781352749
H           1.72601263316902   -1.57347390640877   -0.99661775731508
O          -1.29561613392640    2.33287442050455   -1.31317430491685
H          -0.64088964300964    2.81197570645679   -0.79976190626584
O          -2.57301535983762    0.73103290845124    0.27107029222571
H          -2.08702931058733    1.36661691766196   -0.33771610535297
H          -3.49898298695167    0.80401836579541    0.03599063660545
O           0.39085173166292   -1.43227173996276    2.21519158463721
H           1.29508868350853   -1.42174794152517    1.86781288657044
H           0.17665602396989   -0.48848613204486    2.41433329625090
O          -0.34540775890496    1.11049291611045    2.05230018483250
H           0.15697272214523    1.15711581477466    1.21957908257678
H          -1.27151335665688    1.14082673022536    1.78649660364456
O           2.61120941212776   -0.93739276565261    0.55338426510056
H           2.05935205284049   -0.15750153950766    0.31593291794389
H           3.50291655147158   -0.70079383603324    0.28918233506520
N          -1.11554767380977   -1.51619043287271    0.09201933301800
H          -0.53279949635751   -1.56894709836175    1.00813676377202
H          -1.73026124666414   -0.66340958881379    0.14014427958025
H          -0.42717873417506   -1.40185238137171   -0.68153466830339
H          -1.66844766553457   -2.35648436796889   -0.04219320998748
