    26
        -50.43063050  Gyration_radius:  2.48831773424 Dipole_moment: 7.878
 S          -1.80094434385941   -1.89560290647503    0.57449364245097
O          -2.68173146129585   -2.72159116963779    1.31051481167885
O          -1.93359959214051   -0.45991409345038    0.83182021261634
O          -1.93974454861998   -2.12402965799695   -0.93866116856296
O          -0.34228043977449   -2.25716615060644    0.90732096125281
H           0.27972333424863   -2.11429660153790    0.08802761202209
H          -1.73667601760353   -1.24484602915899   -1.41599554614320
O           1.03673020118927    0.68161874890298   -1.31589348756940
H           1.51773584768439    0.91344169112724   -2.10795534264100
O           0.02799705532586    2.73047820665335   -0.17393094373676
H          -0.78394947558794    2.92852456245844   -0.64285059193790
H           0.46849480421538    1.97601072955566   -0.69807105883396
O          -1.48226741154702    0.24291626094246   -1.71477091230091
H          -1.83280177367421    0.44463880482061   -0.83589024059542
H          -0.49142414116273    0.39918243264968   -1.65012202245995
O           1.20766713923407   -1.83629986486983   -1.01386644537137
H           1.12067264299070   -0.83375430192628   -1.19822736399504
H           2.07635723387832   -1.95299883974034   -0.62189925982078
O           2.37579510510924    0.38773161877858    0.83508720220557
H           3.00700540830418    1.10275542684703    0.92189496366639
H           1.92207094571723    0.52135880226358   -0.06561928625265
N          -0.00528587594108    1.02121458964571    1.81997613634493
H          -0.08600833884263    1.85408903404582    1.16160913844272
H          -0.75696913450943    0.33979588191388    1.52594634189296
H           0.95098343678049    0.61610735604271    1.62391040447380
H          -0.11755061011792    1.28063548875121    2.79315224317718
