    26
        -50.46337456  Gyration_radius:  2.51335316815 Dipole_moment: 5.815
 S           0.15457355027461   -1.69600705947879   -1.08663076842545
O           0.44578134610021   -3.08654331647036   -0.87683676638188
O          -0.11381015591139   -1.29563004628508   -2.44840805487886
O           1.53981438372283   -0.92195061209004   -0.71032983542847
O          -0.80858904176609   -1.13899665883105   -0.14380904224382
H          -0.08412240102817    0.31261806998004   -2.27196894714403
H           2.19793891038140   -1.42294916610833   -1.18326301921123
O          -0.06663920626636    1.29148627868786   -2.12465001101790
H           0.04724969091648    1.67830717708914   -2.99454675210575
O          -2.50277107880312    0.96876000087018   -0.78825911490480
H          -2.23699472495903    0.06983957868392   -0.54414774754184
H          -1.80726433052760    1.25915708026301   -1.40008159643119
O          -1.92984724027330    2.47133392416648    1.33927973132097
H          -2.30413844558659    3.34925103663014    1.26432888246799
H          -2.32140096612970    1.93425002141947    0.60863056178226
O           2.18695322554693   -0.16177740858753    2.05783564738694
H           1.71909547171442   -1.02744746560972    2.01680984546893
H           2.99070638664926   -0.28736995784455    1.55098529178295
O           0.84069248813991   -2.47971970647668    1.70495831790646
H           0.76613986806590   -2.81194510966667    0.78968478412238
H          -0.06647687913806   -2.34946484260150    1.99135443677845
N           0.28481074049059    1.10169246556857    0.66565942271830
H          -0.21927659974992    0.20392016129391    0.43304450296226
H          -0.38668669294914    1.74678881815019    1.12512435137630
H           1.09596099244347    0.81573528504807    1.26537328396900
H           0.57830070866249    1.47666146218611   -0.24013739429289
