    26
        -50.46944044  Gyration_radius:  2.47843180163 Dipole_moment: 4.354
 S           0.19972781080576   -1.00361829036975   -1.80253278420780
O           0.14386701317688    0.45044281853831   -1.75108774628183
O          -1.06425019811930   -1.62441458864455   -2.11185587325992
O           0.82753246320686   -1.55701813476422   -0.60675964802893
O           1.16979357652775   -1.33982747988949   -3.01379301777833
H           0.86162493281566   -2.19609405300728   -3.29151746910600
H           2.13992621223078   -0.46549603758195   -0.51358597607659
O           2.58200257558760    0.40041885905801   -0.61403650051053
H           2.00424338282318    0.84907948016952   -1.24500062827806
O          -2.71929353324759   -0.95297131182551   -0.12708412935026
H          -2.67226259744558    0.00792788619628   -0.20141525981193
H          -2.25661256379112   -1.29567147737779   -0.91766290900372
O          -1.60573018368432    1.68594326517369   -0.32158801346692
H          -1.75526692801704    2.53640304289460   -0.73752756562602
H          -0.95810380652673    1.20904412354583   -0.90860420061782
O           2.22279870644041    1.42823154026481    1.76843929339516
H           2.41320705588377    1.11659337737842    0.84026857089575
H           2.82722893299455    0.93984777734103    2.32958009319209
O          -0.74302734475629   -1.57047725914781    1.52195656682436
H          -1.60713656488369   -1.51406055954979    1.04794291317564
H          -0.09257386523934   -1.72388424505319    0.80327127780012
N          -0.38620361338814    0.94340152088170    1.98980757272261
H          -0.86684553272463    1.37416718412460    1.17331060985702
H          -0.51430473824745   -0.13792274901131    1.88217859112368
H           0.64388959720067    1.16931047971234    1.94893077679102
H          -0.79423079959825    1.27064484090188    2.85836545565491
