    26
        -50.46139756  Gyration_radius:  2.50395103282 Dipole_moment: 6.326
 S          -1.89339207395706   -0.89352716616832   -0.52438328851662
O          -1.96205005633105   -0.01743241393570   -1.67100141532654
O          -1.64142989849769   -0.23722212591927    0.73846551759881
O          -0.96045781412580   -2.00396713482976   -0.75857396356726
O          -3.32891119313034   -1.56359758820988   -0.37931526661704
H          -3.57015657377418   -1.81278696139976   -1.26688869551535
H           0.18516697115399   -1.05204266744969   -1.36548758346187
O           0.91604748199320   -0.44944749155576   -1.64882945356757
H           0.72033453701146   -0.23245705356768   -2.56250498103802
O           0.71471639446276    2.16989485432305   -0.55450125859976
H           0.72437440542578    1.30984770103462   -1.00006981307816
H          -0.24103987853755    2.37869844244402   -0.42689594424514
O          -1.92851645803541    2.25488804085645   -0.25527006650914
H          -2.07650579242716    1.65308595268483   -1.00485947593488
H          -1.95123795680475    1.65198857057596    0.50127576773943
O           2.05417755402193    1.74955393356935    1.62347371263672
H           2.75905146588904    2.39769035502237    1.64875645789175
H           1.46756606800615    2.01100318417366    0.85448971129276
O           0.07243227513606   -2.00765934958457    1.64413257179177
H          -0.23772850306139   -2.35886324229615    0.78368692206341
H          -0.56049301247611   -1.27641355259928    1.77358736028446
N           2.17654419139346   -0.74024132325489    0.76997776964185
H           1.93844229477888   -0.63573498027224   -0.22888843473883
H           3.05212815443027   -1.23813525293816    0.88681334392769
H           2.21505158731504    0.22893866974280    1.20199742248028
H           1.35588583011990   -1.28606143045060    1.22081308337521
