    26
        -50.45117151  Gyration_radius:  2.4684108673 Dipole_moment: 4.755
 S          -1.96074846617645    0.38084650528459   -1.00314111559546
O          -2.93666874518226    1.27916736568269   -1.49233274214052
O          -1.02283781781193    0.92220367730514   -0.03859829791721
O          -1.15186791035227   -0.18508427264862   -2.18630003323129
O          -2.63925715506664   -0.84755073797794   -0.35310842322991
H          -1.96465819609580   -1.33386038025205    0.19825097984940
H          -0.43692552364761   -0.83780346124459   -1.85559652232384
O           2.38005115463813   -0.07647487673729   -0.14784739930699
H           3.30778718015271   -0.14403233976964   -0.37691268569617
O           0.58908620299057   -1.77742385064410   -1.25106647070553
H           1.29319030656444   -1.21970944420137   -0.85463042995255
H           0.13164172331862   -2.19496872655396   -0.50507784235037
O          -0.68001708758552    1.39590213234074    2.56175119669238
H          -0.43772266823179    2.31795497427140    2.65760532164981
H          -0.92459649648856    1.27200460430429    1.62450154837821
O          -0.87031006620359   -2.15953808038524    1.02202436256173
H          -0.18360464913961   -1.59893783759235    1.51571939983659
H          -1.29236429970456   -2.71006480854945    1.68347958992304
O           0.93474827580390   -0.73245034212056    2.17051004135106
H           1.50734355253967   -0.43479250479303    1.44609126154482
H           0.43135221402430    0.05284648666140    2.46510304915256
N           1.19105869646772    1.83978641942329   -1.54635499209253
H           1.00830721181746    1.54388775992262   -2.49779223672633
H           0.32154788270117    1.70729399888076   -1.02962340230344
H           2.00964745351361    0.70983712403427   -0.64229129814248
H           1.39581720714584    2.83096062534831   -1.56436286919632
