    26
        -50.46483937  Gyration_radius:  2.6620706612 Dipole_moment: 1.928
 S           0.31416665189227   -1.99421725585386   -1.14121339274288
O          -1.07017495137062   -1.59635492360596   -1.34738489112236
O           0.61421593625995   -2.26807674242427    0.25585757208953
O           1.24924228361501   -1.05407943017906   -1.73206946481201
O           0.49550056318861   -3.37357632155314   -1.90082754932465
H           0.10440532637867   -3.18757448861270   -2.74846064567062
H           1.35075350417689    0.32780405532093   -0.87868566302236
O           1.28826998506714    1.03280041034752   -0.18681836992305
H           1.79621535481051    0.66815254648934    0.56290996647588
O          -0.16312951048790    3.06598408523592   -1.34079903832911
H          -0.16209344836548    2.80316757676180   -2.26306706758142
H           0.48989928080130    2.49561877366611   -0.90099381423052
O          -2.48982277677904    2.65729459904744   -0.01658011569875
H          -2.68240631929569    3.40142962437084    0.55476772289862
H          -1.70970508683342    2.91363503714199   -0.55343054344951
O          -0.57936236932755   -1.32764831208833    2.49345378720793
H           0.23183680428723   -1.00739132049208    2.89978017648822
H          -0.27960248020247   -1.91644163651158    1.77581797364919
O           2.27822055266316   -0.71821488282316    1.61139933431999
H           3.18120794772335   -1.02808961677260    1.53178952003682
H           1.72845458505588   -1.35596759623641    1.10092035708618
N          -1.22307374045503    0.30344114214202    0.45778770859429
H          -0.26905150834958    0.70598726239184    0.28274628852526
H          -1.20730066058462   -0.18949109775070    1.37654079342145
H          -1.92319406605407    1.06497873009253    0.39679432681550
H          -1.36347184779666   -0.42317021815402   -0.29023496169708
