    26
        -50.44661216  Gyration_radius:  2.51444646818 Dipole_moment: 8.880
 S           2.34138908255179   -0.60907787897557   -0.94061301724435
O           3.65014592061705   -0.95865515009347   -0.53368012148915
O           1.44068657473529   -0.20980360627930    0.13744764451503
O           1.65885780522316   -1.78033101874736   -1.70107868115220
O           2.38825753939757    0.50638119847968   -1.98226972901719
H           1.43687995530864    0.82872980789358   -2.16944780727187
H           0.84621801606561   -2.07985031559183   -1.20112672011225
O          -1.97222925912657    0.80140011510881    1.37673931065019
H          -2.68665108575486    0.97580726507097    1.99031036019383
O          -2.07692376420965   -0.19265835030982   -1.13904248572062
H          -2.09155414878453    0.21164366729105   -0.24531218153471
H          -2.94511162390158   -0.06025760497055   -1.52213483561125
O          -0.00392872047282    1.32333543651861   -2.23066050891903
H          -0.68025920154769    0.65537322239268   -2.02721660377254
H           0.02350517484610    1.90422809465704   -1.43463090203867
O           0.18335157682771    2.23370604236576    0.25429518949200
H          -0.64103174187537    1.96672304279947    0.68496580569364
H           0.78177112318267    1.47506366940663    0.35079002401929
O          -0.39299300590876   -2.12359412014754   -0.19021691413849
H          -1.12404980478777   -1.67157798056482   -0.64287495682538
H           0.08418864539859   -1.41914622626125    0.27826539056285
N           0.02239531759806   -0.41035792666463    2.66328605164208
H          -1.26366001189273    0.30978081099665    1.88713461851950
H          -0.08109053232685   -1.40264272871545    2.83913509985020
H           0.76563218262716   -0.29986239347592    1.97630496325693
H           0.33620400620890    0.02564292781629    3.52163099645049
