    26
        -50.46578691  Gyration_radius:  2.71900012567 Dipole_moment: 3.984
 S          -2.51196378965711    0.18537788166767    0.23453602303560
O          -2.34565926550134    1.58302483346154   -0.08723659355223
O          -1.90723520552665   -0.18790540928363    1.50854540831199
O          -2.07102738746859   -0.70752601835236   -0.83471802444647
O          -4.07308006777637   -0.04864136220530    0.39325130441889
H          -4.15068365463317   -0.96815577043671    0.62896583697711
H          -0.77613980476997   -1.48722165939179   -0.23899406243931
O          -0.01378833390395   -1.69522754439646    0.35834845820841
H          -0.39143671280894   -1.51160071198970    1.22937862318786
O          -0.68120403627107    1.32247315170576   -2.10986759651178
H          -1.01519145842761    0.45358527674104   -2.35899402111334
H          -1.35032626905422    1.63606109495806   -1.46467289168256
O          -0.35927092192404    1.94386924218501    1.78036864182894
H          -0.91925114730229    1.14584631235616    1.89019839251640
H          -0.94149006642145    2.55507456423875    1.31594736096985
O           3.68270337770936    0.13102459736884   -0.32784493692125
H           3.42112113143725   -0.81270144005135   -0.32246787021225
H           4.35977300477412    0.22925185026597    0.34263099601239
O           2.61172769522155   -2.36529679958690   -0.22279817798944
H           2.60883762755735   -2.93083673548629   -0.99670481824972
H           1.68309218150930   -2.26805103348430    0.04814135746155
N           1.05213087374803    0.77397577262294   -0.15681196482013
H           0.76029957076152   -0.20848517365345    0.03773741892011
H           0.55244174681277    1.07564929109112   -1.03256423555397
H           0.69152515154069    1.35909722800888    0.63958175720995
H           2.08409576034897    0.79733855164089   -0.25395638554681
