    26
        -50.46769070  Gyration_radius:  2.49482185044 Dipole_moment: 4.181
 S          -0.93063093837839   -1.53106622825022    1.21079519070419
O          -1.04399323060370   -1.28551769161737   -0.24061101404903
O          -2.19172659378360   -1.70168817729102    1.85408065921228
O          -0.12063412893133   -0.46326459833863    1.81445215035754
O          -0.08903303947278   -2.85360543115522    1.34485222091308
H           0.66341685160240   -2.74778916304387    0.74862452229545
H          -1.38211445419642    0.69336754165123    2.11722591074319
O          -2.25326995012433    1.09637504867206    1.93764334135727
H          -2.85712474077525    0.35544151437569    2.06824353558681
O           1.53646323496179    0.05444063838744   -2.85912444956838
H           2.34951556641537   -0.00229447018114   -3.36213794828841
H           1.55883414310680   -0.67581234637018   -2.20692831989722
O           0.80198706165152    2.04056067354606   -1.16806765100985
H           1.05661211016487    1.44892778844804   -1.90570182436385
H           1.30511664679747    1.70577563416126   -0.40254786998791
O           1.99338107459870    0.65685731045934    0.86248081951601
H           1.18112336618268    0.27210899519788    1.28416035198358
H           2.55503065772240    0.95001528495199    1.58088794166652
O           1.50643426236799   -1.60800049329818   -0.68377342238496
H           1.89021280339484   -0.88689582327081   -0.15912370748545
H           0.53401185882868   -1.47888250504797   -0.65134352933011
N          -1.63204316199288    1.21693789063806   -0.65345049819384
H          -2.32375608723472    1.46934905877914   -1.35057877504782
H          -1.96141292228803    1.43175268567967    0.32050074606349
H          -1.46415554933023    0.17073940380685   -0.63740054802473
H          -0.68224483066205    1.67216745909067   -0.86315786276601
