    26
        -50.47225098  Gyration_radius:  2.39559706929 Dipole_moment: 5.712
 S          -1.21582240498853    0.70844856207137   -0.92132737215087
O          -0.48404161908467    1.65090027776870   -0.08826176328899
O          -2.46460842874029    0.28863712701651   -0.31437358030760
O          -0.38010927010139   -0.46968214615302   -1.22276873250353
O          -1.52678808506965    1.39027655938481   -2.27856682657442
H          -0.67134975208589    1.83746422076527   -2.49571246459574
H          -0.30484895195361   -1.72929445364870   -0.24277145587020
O          -0.22320601739355   -2.45960281605140    0.42720636632608
H          -0.40088684159453   -3.27429136955708   -0.04486425946329
O           0.28370311412045    0.86241774145422    2.31744446984097
H           1.05852287765133    0.30977110164022    2.06088014387922
H           0.06499296381058    1.36435351458971    1.50399230180331
O           0.87695068743379    2.41952026014111   -2.23084980796648
H           1.55575053917512    1.72674492201725   -2.17969196953323
H           0.59572154435517    2.54162988755579   -1.30962523961334
O           2.14581315772312    0.04428159302577   -1.50751533683451
H           1.17971478575144   -0.15758039541940   -1.42651021406702
H           2.50284706834623   -0.58175907725661   -2.13972092046117
O           2.02632036723954   -0.81878788582272    1.18085713185652
H           1.42390546767096   -1.54871642121625    0.98675020076234
H           2.24576847777918   -0.41524761379265    0.32539623055141
N          -1.68265189238556   -0.75512679844212    1.94816259301845
H          -0.88183899563690   -0.07195533505700    2.25515007925647
H          -2.35518407438405   -0.92876873461794    2.68664440032412
H          -2.13624945834555   -0.30863471386650    1.09676113388080
H          -1.23242526930409   -1.62499801655011    1.61331491174119
