    26
        -50.47071318  Gyration_radius:  2.41592429834 Dipole_moment: 4.128
 S           0.10345292232070   -1.44432933432234   -1.41968542480864
O           0.50355302230127   -0.18920753542907   -2.00879877012414
O          -1.27890063163185   -1.47810175850089   -0.97083795739105
O           1.02213131146029   -1.86756994496056   -0.36115829908488
O           0.21382346245235   -2.53155404057699   -2.56545438923703
H          -0.28774935640569   -3.25572599092914   -2.20708752962347
H           2.17779884265356   -0.69863533982050   -0.27431144573163
O           2.67477535815878    0.14663262733014   -0.37304082858982
H           2.53013593781403    0.37129256550937   -1.29911744304864
O          -0.47444864097024    2.18533600922369   -1.30424451802405
H          -1.33232139590632    1.86925580673752   -0.93312246546349
H          -0.13084164016451    1.40544354358188   -1.78551981412697
O          -2.33922809034816    0.81905604400774   -0.02436994135856
H          -2.00196747413265    0.78410434431770    0.88071328489392
H          -2.08457180408827   -0.02807504134648   -0.43775711356045
O          -0.75145217758655    0.51966614939114    2.35744264537175
H          -0.71277832561082   -0.45362762577370    2.12062357528709
H          -0.94728676223724    0.55696065941462    3.29425788999083
O          -0.71502764429795   -1.96210066605743    1.59071889271916
H          -1.36717843932502   -1.94219604824645    0.87319214454612
H           0.11987816230289   -2.05231104605637    1.08961260302742
N           1.02739480825279    1.86439799366899    0.77742254259446
H           1.76240558122537    1.18659413026974    0.41194690003168
H           1.45962856427179    2.68859901906317    1.17928223284607
H           0.40635250381015    2.11927791148855   -0.08347567921473
H           0.42242190568276    1.38681757801874    1.47276891807595
