    26
        -50.47073146  Gyration_radius:  2.48435202446 Dipole_moment: 1.237
 S           0.23326323455649    0.86058901811399    1.58776374576711
O          -0.88562796205443    0.03647659087354    1.16611147347459
O           0.88620494645078    1.49585499253350    0.45086453853361
O           1.16504706440755    0.18011490823671    2.45815544445311
O          -0.41639298182154    2.02780019511911    2.44888985846565
H           0.30298714149003    2.35673339665165    2.97864621177663
H           1.70469976345666   -1.11582561132166    1.63058575859018
O           2.00608772835108   -1.86553707881939    1.06270244295686
H           2.69340964949220   -2.31412281828408    1.55873733300992
O          -1.48395024561667    2.31481384535134   -0.42183443994093
H          -0.54708786079708    2.15363476855548   -0.19942288489213
H          -1.97421123181816    1.95253605244084    0.32057436963108
O          -1.96106627574724    1.06004525410355   -2.74450009662929
H          -1.90152445842305    1.61223856219509   -1.93099345186509
H          -1.57488892747777    1.58285881610224   -3.44861740771916
O           1.97424072895231   -0.30899629333017   -1.20553952237497
H           2.21337368280371   -0.97587598683601   -0.54003581529045
H           1.77715032710411    0.49500699241429   -0.68763193939104
O          -0.57448480651810   -2.79473885352269    0.46800850341744
H          -0.98933496790249   -2.12243692890701    1.01972721890562
H           0.37457087238059   -2.70252992443586    0.64332587523934
N          -0.61758170198192   -0.79792650367778   -1.35747391912578
H          -1.17976187622434   -0.27909934453756   -2.06557484885564
H           0.42293906466621   -0.66407007205452   -1.50782233553994
H          -0.81472428301264   -0.39067941776236   -0.41031471644517
H          -0.83333660470671   -1.79686452919890   -1.27433141614251
