    26
        -50.47214170  Gyration_radius:  2.41843783869 Dipole_moment: 3.333
 S          -1.79378391994450   -0.18363657127333   -0.53072164160361
O          -1.83350299666083   -0.12225334319703    0.91606162804091
O          -0.89321780455701   -1.22126080007368   -1.01170032247052
O          -1.51989672538243    1.10023257754214   -1.15294559884121
O          -3.24572944974272   -0.59982058819332   -0.99305921941335
H          -3.17970945632427   -0.52145567140514   -1.93867622873544
H          -0.79757455763903    1.93663041341376    0.12026237808471
O          -0.34096168186338    2.32705048063053    0.89218552185605
H          -0.95092928157850    2.20517682838810    1.62226323744594
O           0.87080258471030   -2.93949366361935    0.05299436852738
H           0.12769400349275   -2.54726745077169   -0.44365743847789
H           1.66062396074128   -2.60573912729925   -0.38471402127097
O           0.77938707455783    2.13170611856114   -2.20395322542751
H           0.93954672763546    2.85006838423303   -1.58735738211877
H          -0.11814019628259    1.81444116469301   -2.00513601771315
O           1.81368419570144    0.74554200642772    1.28144414163774
H           1.93559169365415    0.41026335572323    0.35991437888133
H           1.15317479234357    1.46488799592646    1.19671871836337
O           1.61910196401304   -0.23379235570331   -1.17692305620585
H           1.56097876336595    0.58537209855815   -1.70475017878830
H           0.71359286340926   -0.59431722586696   -1.19710415814127
N           0.29835877201250   -1.21858395232580    2.01049857323714
H           1.00619084526503   -0.41191474479324    1.84695404736671
H           0.57608271225628   -2.01876895876453    1.38503889554174
H           0.24536052133165   -1.49880788022210    2.98297521887186
H          -0.62672538451341   -0.85425912059165    1.66338738135209
