    26
        -50.47771704  Gyration_radius:  2.36995434967 Dipole_moment: 4.706
 S          -0.64512264731671   -0.31207744277638    1.28728148502053
O          -0.63344134175905   -1.75762310414849    1.29615123869285
O          -1.46627862285347    0.22486152668540    0.19966897226072
O           0.72052830657238    0.22272890743659    1.20291902632431
O          -1.24817836192095    0.18304719081004    2.62939123357668
H          -1.35949279931926    1.14970264708300    2.47616175651223
H           1.68783853877231   -1.04595385648014    0.74219079760090
O           1.99742095223517   -1.88945625232288    0.34059536339371
H           1.43549098529066   -2.54893832270386    0.76193173221832
O          -1.52252143225113   -2.22629374520577   -1.12777286098159
H          -1.25752983432273   -2.23480505460765   -0.17916639779633
H          -2.09717683201513   -1.45579064004820   -1.18844477245165
O           0.08432675960115    1.12311479741777   -1.74148536934671
H          -0.58854331675708    0.84547789219200   -1.08049881654576
H           0.59531951224278    1.80738287093948   -1.28577733519048
O          -1.44684069928442    2.55817155161338    1.52819955624407
H          -0.59152776192699    2.88861669137445    1.20688278029091
H          -1.77001823819054    1.97564466289329    0.82427155819905
O           1.09904465831750    2.65607772257860    0.38286401963756
H           1.90802775743970    3.01686000786895    0.74787801362173
H           1.02380342097093    1.73365839729249    0.73207000542192
N           0.83558153663459   -1.39152858649276   -1.98097970448894
H           1.23910567402228   -1.72652080823567   -2.84856131103003
H           1.43642932997510   -1.63423801773160   -1.13918898889678
H           0.68276186851098   -0.34120538272115   -1.99443987117179
H          -0.11900740265976   -1.82091367273416   -1.79214212112735
