    26
        -50.46448823  Gyration_radius:  2.59732441271 Dipole_moment: 3.003
 S          -1.26566668884843   -1.57139132367147   -0.88757753718071
O          -2.12689746689416   -1.41448096944929    0.25720632144020
O           0.14493235687837   -1.66389714186970   -0.49154025959936
O          -1.45796294518832   -0.56502094910263   -1.91498848256483
O          -1.62691312905866   -2.95703752484783   -1.56533884778171
H          -1.29322233549756   -2.85405180401468   -2.45190538636416
H          -1.29160868458801    0.81078568006778   -1.14152375747442
O          -1.19047333150114    1.60282475200253   -0.54803359598131
H          -2.04812160683699    2.03052083048593   -0.54182002593308
O           1.95578899018205   -0.47106920910828   -2.03090492507159
H           2.78114304669428   -0.84811382393345   -1.72043089679929
H           1.24576855899193   -0.93491925166146   -1.54054963433410
O           2.46366521289883    1.60390416996068    1.35228688779068
H           2.24971495033591    1.81361964277201    0.40350463129887
H           2.67879953750616    2.43847636253264    1.76935070843197
O           1.57116999979401    2.03594384804436   -1.08421200643038
H           0.60716765687167    2.08272267713891   -1.03177213672820
H           1.75888603707567    1.20492442330440   -1.56766571976834
O          -1.63692568192349   -1.09443753965917    2.84616821564331
H          -1.87661546108145   -1.35792270868549    1.93112243565583
H          -2.46535698964182   -0.95203610370879    3.30564493552076
N           0.17588411167862    0.22194909375029    1.35887486038847
H          -0.41455982370360    0.87877842199003    0.81128003979183
H           0.31708008614886   -0.60160002045091    0.72295126592529
H           1.09100544532189    0.67926263211474    1.57495985307352
H          -0.34668184560084   -0.11773414401279    2.18491307703809
