    26
        -50.47679053  Gyration_radius:  2.36806018714 Dipole_moment: 3.212
 S          -1.48591526828260    0.36609890836686    0.24020792603034
O          -0.93923576180208   -0.56451820397435    1.22843024521181
O          -2.30744728623278   -0.31447752363107   -0.73894746125804
O          -0.38813960739978    1.10386477235711   -0.40564800308078
O          -2.36861925538373    1.39415670870843    0.98374951858296
H          -1.70658460658273    1.99274103697839    1.41930459636604
H           1.14811882522199    0.44304232828320   -0.08974102914186
O           2.00258679216364   -0.00639533490304    0.07400235729513
H           2.17227119786545    0.14160272895897    1.01133508937115
O           0.83022345860041    0.46932549826540   -2.71437822065299
H           1.71892646109968    0.38487120030790   -2.35488218385758
H           0.31465165300572    0.90896941277874   -2.00930145445653
O          -0.27160764628160    2.69763701201530    1.77673810041495
H          -0.00039252303801    2.57221500859814    0.85724293261012
H           0.26088264623189    2.05710634810011    2.28748972642327
O           0.65391068712902   -2.33093170057123    0.01547895698290
H          -0.01157332602540   -1.90703489513322    0.59392005474022
H           1.38286817748175   -1.67408364370548    0.00091998521340
O           0.95751197818272    0.45433639221364    2.70109447566352
H           0.89050048281005    0.12659755799601    3.59898670452659
H           0.23779449791250    0.00701751050206    2.18993339631771
N          -0.62258756349448   -1.69032802290865   -2.16653456188608
H          -0.02519744941672   -0.94256517384182   -2.60379404800768
H          -0.06402186017724   -2.13248639886877   -1.36522237827965
H          -1.42709114773459   -1.18591338654916   -1.68840218905870
H          -0.95183356606600   -2.37084814056378   -2.84198253620340
