    26
        -50.46908705  Gyration_radius:  2.36586757843 Dipole_moment: 4.961
 S          -0.46743765381203    1.12202011013588    0.88319219118750
O           0.83471671934806    1.42517408369775    0.28274942368787
O          -0.84870151750431   -0.26039404772621    0.55799102699344
O          -0.44678693358537    1.29950834629640    2.32797113858549
O          -1.51687146478918    2.07253658740906    0.29971580868677
O          -2.34364483322055   -1.11357973027107   -1.49977166614525
H          -1.76667392557051   -1.79391840937817   -1.85567085952637
H          -1.95639830037814   -0.85781606680895   -0.64094455133468
O           2.33023934281616   -0.62977139904728    1.05144412972889
H           1.99236318293146    0.26033937371716    0.81254431929213
H           2.03397183838750   -1.19397515706668    0.29866674107144
O           0.87746143112052   -1.64223872323776   -0.93609559939438
H           1.05310569129663   -1.02602387677136   -1.66028679926793
H           0.17785077240511   -1.20568083750775   -0.40792606946798
O           1.00090910672941    0.84634372396973   -2.24301266688414
H           0.99011212529232    1.11046968203873   -1.28711632104690
H           1.62077969124308    1.43486989876924   -2.67616204663421
O          -1.66467989744950    1.40918582378747   -2.15380995523286
H          -0.73521358376524    1.22591680646708   -2.38992991342066
H          -2.09864258408531    0.53250955007782   -2.08768191104493
H          -1.62197217047356    1.87559246893756   -0.69708018399477
N           0.51183300914119   -1.00937343072267    2.84117040817840
H           0.76944936373433   -1.25855906745606    3.79085615198734
H          -0.16999628021230   -1.65626997437038    2.45121103561554
H           0.07314590872587   -0.01609957092332    2.77368307259688
H           1.37108096224880   -0.95076617331250    2.16429308599549
