    26
        -50.46146362  Gyration_radius:  2.62282311476 Dipole_moment: 1.541
 S          -2.08923142274665   -0.11002902850838    1.07231755706992
O          -1.56060175647866    0.99332720241673    1.86143732586442
O          -1.06007768420191   -1.08294959168503    0.72685761318085
O          -2.83524453353429    0.33555540546661   -0.08465152517240
O          -3.10273158593766   -0.88656887979884    2.01593110786728
H          -3.69179088764397   -0.19701473357724    2.30646684132026
H          -1.60016587332214   -1.92531957192833   -2.16504130768973
O          -1.04084699324601    1.30974130780576   -1.77280249907393
H          -1.83903567775687    1.13708965764881   -1.22831321038187
O          -0.83745285104809   -1.43540689361151   -1.85463236990487
H          -0.96208331385731   -1.33960129980394   -0.87667064524956
H          -0.83746050748181    0.43377435394314   -2.13847406452452
O           3.10551102548774    1.48912971022109    1.42622324243266
H           3.83525237812859    1.52753669431270    2.04517713224154
H           2.84372568249130    0.55984867910100    1.36743991796962
O           1.64285192956213   -0.88222417027563    0.74799598568686
H           1.86474598695580   -1.31196793166352   -0.10419461469835
H           0.74248384643354   -1.18692734108256    0.95863196440746
O           1.85246345660138   -1.83316153029080   -1.77174738036232
H           2.22914776719941   -1.28575480567440   -2.46231718719777
H           0.88523287098041   -1.81751411200943   -1.89999779891109
N           0.50535826272011    1.52936925830803    0.35739009327056
H           1.15107068456327    2.29105575631071    0.55365003632673
H           0.02539396543409    1.59868436597345   -0.58205588830529
H           1.03912829619513    0.62541083469371    0.42453405912958
H          -0.26564306547683    1.46391666364723    1.07684561469781
