    26
        -50.47074638  Gyration_radius:  2.49910664934 Dipole_moment: 1.686
 S          -0.85934682602257   -1.77765624050263    0.06615332871546
O          -1.70929931091779   -0.87486283043103   -0.70819900049874
O          -0.91697859950450   -1.51779720315068    1.48518879483016
O           0.49371533280054   -1.81231662856788   -0.46292508334609
O          -1.45452910255456   -3.22962962918339   -0.13969955051690
H          -1.35503616363542   -3.37083578654848   -1.07553970652298
H           1.62664257875425   -0.73303217653838    0.15675327295754
O           2.11393959789341   -0.02172467244260    0.62536267418605
H           1.95750973328761   -0.21092250437843    1.57341404876250
O          -1.72565484351926    1.06671891993075    1.05441066370370
H          -1.59423264837437    0.48907487338531    1.81489232666662
H          -1.88967410485924    0.43290794322094    0.32285875511731
O           0.21870491810138    2.26344820487104   -2.41417630303428
H           0.19012552301832    1.29413108898404   -2.62570323079855
H          -0.61226808702257    2.62136229536344   -2.73078861284176
O           1.08466041624627   -0.69432599495065    3.00820521666728
H           1.39397242706198   -1.43363160415469    3.53355034807700
H           0.30813783552741   -1.02628456226417    2.50724639414268
O          -0.06787628683056   -0.34065120589667   -2.69816482088125
H          -0.80954583051408   -0.48690294310209   -2.07502443432097
H           0.65148524136444   -0.84723959607186   -2.30356956152549
N           0.59518401989920    2.06474420532475    0.22328538028008
H           0.48577607543329    2.23446036625067   -0.81004266106621
H          -0.33939322158778    1.75598114209045    0.61216215565599
H           1.28938508931351    1.25390702196078    0.36800976326955
H           0.92459622663676    2.90107751679632    0.69233983233071
