    26
        -50.46637112  Gyration_radius:  2.58551006451 Dipole_moment: 2.425
 S          -0.15501024046596    0.14418895281290   -2.17394160123704
O          -0.25419784291019    1.56398931903835   -1.94071922940948
O          -1.21031846124586   -0.62677431216368   -1.53517710370694
O           1.16412629124312   -0.38499200882694   -1.83002856991719
O          -0.34068644904437   -0.07847168889258   -3.73292351985270
H          -0.53687192675307   -1.00808822613642   -3.80703062921501
H           1.11247593604242   -1.66008542280439   -0.74081631981945
O           1.17490853579241   -2.35490388481808   -0.05120025261867
H           1.85046085630997   -2.96483857205382   -0.35189478354554
O           1.54659835599144    1.21162244381758    0.22863690679324
H           1.45221248996577    2.09777511096012   -0.12990790398896
H           1.56474936840157    0.62385822666568   -0.55940894597595
O          -2.07312247242931    2.60783023625979   -0.28813111171958
H          -2.87880944955205    2.78614114246729   -0.77430511686700
H          -1.40842356468608    2.33504038568517   -0.95619979605558
O          -0.72935802371823   -1.03377637009313    3.08603827974821
H           0.24765104328522   -0.98941266892964    2.93448354094656
H          -0.95836757363616   -1.96353644809364    3.04235214921120
O           1.75407570857014   -0.91412067577316    2.16800575494203
H           1.59301567195785   -1.51794626767014    1.41349301913074
H           1.97118800569832   -0.06550903189575    1.76694998415522
N          -0.99400365687067    0.43220179518748    0.86903744212730
H          -1.09258753296926   -0.11348003218723    1.76011190110650
H          -1.61186440176026    1.25781467807278    0.80145438670262
H          -0.00921439774409    0.76785789690966    0.78406593012260
H          -1.17862626946865   -0.15238459751559    0.01705556888607
