    26
        -50.47201769  Gyration_radius:  2.51750379312 Dipole_moment: 1.427
 S          -0.91958593998377   -1.65606344071736    0.64128904430318
O          -1.33156554357988   -0.25258632545555    0.60377528502747
O           0.44685098698687   -1.79785676539209    1.09769586534312
O          -1.20497709310715   -2.32793471828936   -0.60798876660811
O          -1.82158913484765   -2.35264111315852    1.73891654698081
H          -2.65728239283360   -2.42388467198860    1.29027393801260
H          -0.49730320372582   -1.53247612772849   -1.82615096984267
O          -0.01364318466689   -0.99970933284843   -2.50564906221478
H          -0.00438603743925   -1.53113413706526   -3.30351834153464
O          -1.45816028113069    1.23310536998362   -1.68294048606865
H          -1.62422647709911    0.74197402481736   -0.86007041406972
H          -0.93883834889620    0.61955255473761   -2.22394513714851
O          -0.07362926042824    3.31636943624638   -0.77231106157721
H          -0.69792732108933    4.00410152697349   -0.53888281620473
H          -0.59729154915994    2.61894385806069   -1.23904656675873
O           1.31034403991242   -0.08732315363547    2.98780719564359
H           0.97290774290319   -0.77208117112843    2.37577547683388
H           1.82986132170351   -0.55217892905440    3.64445082559903
O           2.03153672444688   -0.59068668414706   -0.73260859371948
H           1.66536919976836   -1.22761389473257   -0.09358095827997
H           1.47448719270862   -0.67870952784023   -1.52576870161925
N           0.83580803763948    1.28233479107040    0.71635343880234
H           1.46872300435039    0.71022700040612    0.09364647133646
H          -0.06752957521438    0.74843856805004    0.75346500162828
H           1.21853931200267    1.28742392622991    1.66648051823509
H           0.65350779080085    2.22040895673492    0.30253225805867
