    26
        -50.46904312  Gyration_radius:  2.42791848171 Dipole_moment: 1.349
 S          -1.60289703130312   -1.22868281967663   -0.34658579140777
O          -1.65595231427046   -0.15798472758612   -1.32771655944641
O          -2.07963680774631   -0.84536694399617    0.96055290786892
O          -0.27145836365488   -1.83371492294034   -0.29154715211274
O          -2.58263810192354   -2.34882457009293   -0.88776814393042
H          -2.49116137814366   -2.26401696134888   -1.83114370651433
H           1.15732021805192   -1.43032812605557   -1.02551853276016
O           1.99667955212467   -1.10892790130527   -1.42571333680926
H           2.43853180223661   -1.87757392547805   -1.78829489570824
O           0.58082374255628    1.22778236926094   -1.72188694758598
H          -0.27492864341040    0.74852545008128   -1.71493489798731
H           1.25655983560518    0.54414389223259   -1.84299057366559
O          -2.24417858176805    1.75869432867802    0.65121125177017
H          -2.37271523513537    1.75413234491266   -0.30300466594388
H          -2.32180260940274    0.81071930654485    0.89778670280359
O           2.85739717295790    0.39387058315783    0.81514554993480
H           2.53239339637807   -0.19665089925977    1.50019395936063
H           2.73187201114516   -0.08238041533038   -0.01838194151210
O           0.46352874837873   -0.69347922409061    1.97146356101833
H          -0.36709654432697   -0.73357314371620    2.45519292010833
H           0.28206377769734   -1.21993861911944    1.16336821447625
N           0.40258622871759    1.78002477272658    0.84114116266738
H           0.63427450353560    1.64119894426657   -0.19255036048586
H           0.59198750698359    0.87391663553153    1.33483928508875
H           0.97272669540486    2.51900936214443    1.23801308344545
H          -0.63427958067927    1.96942521045455    0.88912891730230
