    26
        -50.47064884  Gyration_radius:  2.41828207309 Dipole_moment: 5.140
 S          -0.45305233512126   -0.69956725465102   -1.82270402503014
O          -0.61538503948908    0.73378125490802   -1.94919175793896
O          -1.47620276100551   -1.34981741943013   -1.03773373434010
O           0.89246602686145   -1.05191302478704   -1.35618718115103
O          -0.56924279973117   -1.27040861836607   -3.29533251872329
H          -0.28996472997056   -0.52168313920608   -3.81064860499718
H           1.88456385803882   -0.14354974078784   -0.47433885602458
O           2.46320361076461    0.35280520239078    0.16108861019506
H           3.36487550935029    0.12319575578750   -0.06767213435617
O          -2.72853739604560    0.76310656444481   -0.04579933611177
H          -2.48356827441923    1.38406844352720   -0.73835307838643
H          -2.40074876632976   -0.09781947184957   -0.37017003920978
O          -0.98281831198080    1.48891778331573    1.81958413619676
H          -1.75844542990354    1.19997128188052    1.28259252274317
H          -0.45168361205138    2.02889973720460    1.18694194522821
O           0.53157402301279    2.39130171258119   -0.16594363175274
H           1.38756753480825    1.96114757597118   -0.04879635306077
H           0.09199437590411    1.89344419035491   -0.88247938986219
O           0.14558959498385   -2.53698831262987    0.69545674099175
H          -0.78050142680802   -2.51725224413174    0.41743770291319
H           0.59832858001712   -2.17702723640060   -0.09514407379035
N           0.73338387557827   -0.40053055796665    2.14430364389704
H           1.53763237240559   -0.05788489031635    1.58720844355969
H           0.41938740957215   -1.30606084280216    1.68817119807023
H           0.99528611467803   -0.54986477797904    3.11220004349493
H          -0.05570200311809    0.35972806893792    2.06550974744486
