    26
        -50.46434330  Gyration_radius:  2.50758309112 Dipole_moment: 1.174
 S           1.21807939879077   -0.07807387679964   -1.59225346453437
O           2.06400886786995   -0.27502160901657   -0.41692639320852
O           0.14609523130725    0.86354265966766   -1.32603752064198
O           0.76999263435870   -1.33302574915583   -2.15526223947873
O           2.13205305308459    0.60681305247843   -2.68682510198781
H           2.71579020126668   -0.10549701407583   -2.92465748120308
H          -0.20890356413374   -2.28459457147278   -1.25244289812038
O          -0.81819961942087   -2.77012147333909   -0.64544671431948
H          -1.25174528737848   -3.43761499731269   -1.17888194871299
O          -1.46479630268619   -0.34180300360386    0.39679195566461
H          -0.98338901812628    0.08964229695334   -0.34116839642112
H          -1.44958068256892   -1.29059052783003    0.18348411036431
O          -2.65111813024474    2.08272439695065    0.91867166700390
H          -3.28935189682073    2.26009156908230    0.22605575558532
H          -2.41049362165647    1.14422754889744    0.83710110652629
O          -0.07930290620280    2.87843054327286    0.51735291440845
H          -1.03866816524921    2.82374364413795    0.70193252748108
H           0.04276138877719    2.41215012974238   -0.32816176242370
O           1.04608500818313   -2.14965766980575    1.40074452176592
H           0.38348113316943   -2.63471685804149    0.89511667212614
H           1.61451289398417   -1.73233506310657    0.74033486083582
N           0.71249296431391    0.66139359404971    1.64523209857382
H           1.09183769519318    0.52673790906031    2.57612532780140
H          -0.14995245577515    0.09196563907153    1.50257567986143
H           0.47073190153445    1.67143432703469    1.39640817803525
H           1.38757927842468    0.32015509316902    0.91013653502076
