    26
        -50.46769648  Gyration_radius:  2.40774116742 Dipole_moment: 8.478
 S          -0.97608820454209   -1.40583521203622    0.44246889424387
O          -2.31811164143109   -0.89805765749434    0.69401601588542
O          -0.02457517611591   -0.93457971327946    1.44181403189816
O          -0.54377082254516   -1.01428948338080   -0.90857543519273
O          -1.01285279484700   -2.94834632078530    0.48988515071458
H          -0.04818283801331   -3.19084183524636    0.58793660478228
H          -0.67084908129430    0.39420575465378   -1.54323223567577
O          -0.71824924627433    1.33133912898834   -1.89863643424014
H          -0.87921904780962    1.23720394818665   -2.83896002723583
O           2.10955104813642   -1.17557329240127   -1.03025851600643
H           2.33291444152679   -0.29032990531040   -0.72153830038489
H           1.13571031337191   -1.16949147423342   -1.10920319121655
O           1.73081760641740    1.73992698139829   -0.68566753804669
H           0.91462143498824    1.63173258478722   -1.20948068276004
H           2.27908728824537    2.37869586252428   -1.14343915869134
O           1.54234105271541   -3.02751654446354    0.87563763568890
H           1.95463909428045   -2.57392724507419    0.11248724348396
H           1.32587219860790   -2.30755428857348    1.48657497907853
O           0.33118663780533    1.64445389416710    1.68728066612397
H           0.98374343001052    1.78694861515047    0.97999442392694
H           0.28238539508310    0.66331397384729    1.77475728556185
N          -1.97427756123918    1.65625015440716    0.50269450057037
H          -2.72198000531182    2.26631336754429    0.81388706407687
H          -1.74207619485357    1.79630458927064   -0.49292094242136
H          -1.05950317170624    1.79093236346855    1.06913118604064
H          -2.23313415520939    0.61872175388274    0.62334677979663
