    26
        -50.46543384  Gyration_radius:  2.55479030427 Dipole_moment: 2.827
 S          -1.51943913385542   -1.66628232202697    0.17594539029858
O          -1.85354643093076   -1.10374825060099   -1.12635874298294
O          -1.12281021595597   -0.65051548744995    1.12967243199685
O          -0.55583470690934   -2.74606997670659    0.05743572724775
O          -2.85323673808682   -2.30102896969380    0.74270984987018
H          -3.07540269607324   -2.93717204071091    0.07075022057014
H           0.85479788532479   -2.20400961715976   -0.42371423286839
O           1.70027249096557   -1.77939764997485   -0.73505593088567
H           2.28648232543615   -2.49888174790156   -0.97450174925204
O           2.08563159294873    2.16832774626133    1.09116751280031
H           1.92060985731576    1.22487070637867    1.33831507685080
H           2.09137314832988    2.66053794756217    1.91249617898835
O          -1.87091065055960    1.86158410848182    0.75859686478838
H          -2.05302278816136    2.18872551017616    1.64077117124470
H          -1.66613463709494    0.90786337826872    0.86200281483826
O           1.50473077593667   -0.35293066639579    1.66918846321598
H           1.83997847555229   -0.88309320252254    0.93288441190053
H           0.53656878716514   -0.45977625203774    1.63065937630143
O           0.22286568481327    2.52666831956626   -0.77885875416090
H           0.95872968569844    2.50515749409469   -0.12529669810922
H          -0.60047285758970    2.43849999600888   -0.25245700000916
N           0.24708109784986    0.21970605269689   -1.93649104806835
H           0.31194996380670    0.30288017594519   -2.94550662638368
H           0.27354805779067    1.21305898857079   -1.47305095233409
H          -0.66605384148910   -0.25080049909388   -1.66883383762348
H           1.00224488774403   -0.38417375175421   -1.57246991829116
