    26
        -50.47070317  Gyration_radius:  2.5276282519 Dipole_moment: 4.148
 S          -1.11803398713456    0.99327984043388    0.02571352876743
O           0.18744446138585    1.58890621948373    0.22399062653052
O          -1.34828521205788   -0.12409451580661    0.92882605485177
O          -1.31852864250016    0.57508462438707   -1.36833089519392
O          -2.17063224546907    2.09892912807246    0.33715999527579
H          -3.00706770214970    1.70365353621108    0.02313705779470
H          -0.32362778696306   -0.61680683888786   -1.79666424616362
O           0.30023012632328   -1.36034793803431   -2.00192569336183
H           0.08748056907893   -1.64893429104117   -2.89076917477738
O           1.43653715723094    1.15870610933725    2.53528473833049
H           1.88593867092827    1.98298256507400    2.72955408876721
H           0.88558239669811    1.33466078422522    1.74396424781932
O           2.67106339176976   -0.88664822334475    1.33034575305566
H           2.34954606657361   -0.18760046545261    1.94059266923130
H           2.78980224818385   -0.42081814678716    0.46966881366565
O          -3.92071654858629    0.75203777579735   -1.12140494165630
H          -3.01437025917159    0.50270026516900   -1.39512107373792
H          -4.29639058576468    1.25897735599754   -1.84488205354755
O           2.29819266228438    0.38280032170604   -0.98165848391666
H           1.82249457015556   -0.23994266745515   -1.54666010901306
H           1.61190874757732    0.97312620190087   -0.62071343520335
N           0.43535975435040   -1.99510855659196    0.66212140949809
H           0.20268455634287   -2.88323746919778    1.09189771825533
H           0.46209512858486   -2.06603346497814   -0.36649863912728
H          -0.30777476247091   -1.26327273011158    0.88173747917252
H           1.39906725482226   -1.61299943009485    1.01063456467653
