    26
        -50.47163771  Gyration_radius:  2.37112732715 Dipole_moment: 7.011
 S           0.37692022652000   -1.42527738019423   -0.44016686232549
O           0.47131879886437   -1.35914404202151   -1.89127441254850
O          -0.91023407394151   -0.89521960935860    0.02146208029894
O           1.47104368308038   -0.67535398127261    0.18579935968304
O           0.47787978300536   -2.89594176502645   -0.01305536319291
H           0.07744014625242   -2.90376455280343    0.91059880531212
H           1.68191114727014    0.82414145462008   -0.28427571505975
O           1.69286300677530    1.77430305183081   -0.58699115974750
H           2.61163108082911    2.04603308012756   -0.56623745470316
O           0.83872938244028   -0.40029609408144    2.77574679402797
H           0.29446512124054    0.39477494078215    2.69823304782176
H           1.25723474849264   -0.51032139125454    1.90042618907504
O          -0.67964859551394   -2.51624147644204    2.23785099958477
H          -0.10086192323045   -1.83271847799911    2.65423454293561
H          -1.38095472833534   -2.01974046912149    1.80082596812368
O          -0.59617460125998    1.52248596921292    1.16650257877131
H           0.19890062974341    1.88454168134753    0.75869554634829
H          -0.67172272848340    0.60692622678276    0.83294078095865
O          -2.31957234264262    1.14802914709968   -1.02680860763917
H          -2.11999786824027    0.24219449527510   -0.72348284281515
H          -2.12508177421475    1.69544388657514   -0.25078951668559
N          -0.11020134669921    1.08353939755160   -2.46197739094794
H           0.61552969341558    1.58096900559336   -1.90662489252873
H          -1.06128538920007    1.22960758172853   -2.00347576554595
H          -0.10709460540519    1.36570840034458   -3.43615601415962
H           0.11696251920214    0.03532092068434   -2.35200070504019
