    26
        -50.46834713  Gyration_radius:  2.54017336391 Dipole_moment: 5.950
 S           1.06301744741521   -1.17953432198933   -0.23836318840109
O           1.38233354685832   -0.99836542457421   -1.63179552299761
O          -0.36483083378497   -1.52815034946763   -0.06756105245134
O           1.36927892447143    0.00535201818264    0.56766447595338
O           1.88790613917746   -2.36283608847664    0.31680598860767
H           1.88512616548257   -2.20479247045759    1.30531017884427
H           1.07997369273987    1.43979481314283   -0.01610646341694
O           0.88680343845192    2.35223095098124   -0.37138693610427
H           1.58080037137541    2.91200844135054   -0.01931517913341
O           1.60137851737776   -1.54770785542918    2.73624775199504
H           1.58094511316874   -0.68674035072337    2.28939350156470
H           0.66237191939253   -1.78326793078736    2.88761264331459
O          -1.75336911533817    2.52783533259017    0.13794270447406
H          -0.77377226373064    2.53615315736910    0.07660065293987
H          -2.05528482884148    3.37243221018740   -0.19994749594087
O           0.25753137908399    1.08126781261053   -2.76030910932669
H           0.59146243438029    1.75921771744275   -2.15189281315069
H           0.78297637839697    0.27804561256166   -2.53672773671797
O          -0.98755011805662   -2.21101983850996    2.41168297394106
H          -0.83892167368797   -1.94136233230645    1.47863975827339
H          -1.17656280324863   -3.15062516266044    2.38967921923268
N          -1.76669277711651    0.26314076747443   -1.32630069113072
H          -1.05157393808346    0.60508919683376   -2.05119534706541
H          -2.61221326972607   -0.09296188264675   -1.75780695425478
H          -1.26701067413787   -0.50819639797959   -0.78303666901969
H          -1.96412319224075    1.06299237531976   -0.68583469979157
