    26
        -50.46701391  Gyration_radius:  2.61751042136 Dipole_moment: 1.914
 S          -1.06994411340710   -1.52353499276981   -0.51802068764019
O          -1.61247836472038   -0.57205285649530   -1.45793448432087
O          -0.97156122221750   -1.00177645471468    0.83602248857529
O           0.20429524393744   -2.08326639164548   -0.95926147994221
O          -2.09623902270715   -2.72902182888219   -0.45124398423104
H          -1.80264698076556   -3.23311296350726    0.30206604180297
H           0.84137250639230   -0.73925627106636   -1.81860958725648
O           0.98526785976167    0.18544542113612   -2.10179998882005
H           0.16789821301214    0.41892009182789   -2.55152447347546
O          -2.81854109728479    1.59785147309052   -0.56475715012780
H          -3.31513887375889    1.88531050597392   -1.33287994560939
H          -2.39368304170949    0.75042693482455   -0.82662523843668
O          -1.00809437719107    3.15843857990738    0.61935188226732
H          -1.70974880649115    2.65213530505830    0.14745533621437
H          -1.37762715752876    3.37816778878060    1.47586744955747
O           2.71652505811834    0.15681583097462    1.93788446298911
H           2.65136358723084   -0.71063125652072    1.47553127089136
H           2.53595153380034   -0.02655232109624    2.86101421922006
O           2.32774742772509   -2.14713740791828    0.62892287440248
H           3.01684964653093   -2.37334008692606    0.00135088200118
H           1.49374201857367   -2.14498837906915    0.11081475018325
N           0.65748173852556    1.04199230595150    0.44340042411858
H           0.18047727056164    1.96198221861760    0.55981980999522
H           0.91252895218207    0.88825355543800   -0.55832254943871
H           1.50315715829903    0.93052633911200    1.04299678105859
H          -0.01895516679378    0.27840484988551    0.69848088603333
