    26
        -50.46930071  Gyration_radius:  2.43434110873 Dipole_moment: 3.381
 S          -0.67028236599426   -0.71521743951210   -0.79060593571669
O          -0.23273951856160   -0.93421167784715    0.60214641251884
O           0.24293761696064   -1.35508126756438   -1.71248398443551
O          -0.79339372029671    0.71917073481560   -1.04765750972294
O          -2.05981998180575   -1.36206662182721   -0.94918567938514
H          -2.68557369561491   -0.79477185210783   -0.40843729485802
H           0.65180651255502    1.14034298823908   -1.77376418933099
O           1.61633951543476    1.15287536189370   -1.96724858980010
H           1.74977303598901    0.40291270790674   -2.55443292582257
O          -1.63578768460551    0.52483578591181    2.32630864423714
H          -1.10822238533074   -0.15533286890102    1.86366831761621
H          -1.16404160809890    1.34790365641479    2.12064832256282
O          -3.56287767755496    0.04888351859212    0.60672473585277
H          -4.19820454335335   -0.52125583354329    1.04498844795345
H          -2.91384522698603    0.33053320144896    1.30729445495629
O           0.01424155195640    2.26252145709635    0.94960786173522
H          -0.15834346665800    3.17198207397240    0.70199900483385
H          -0.32362074743127    1.71930267547630    0.20433420983094
O           2.55223513622653   -2.24221986931859   -0.77557208481551
H           1.70615186980735   -1.99218696925804   -1.21712463452609
H           2.39282367740669   -3.10343678035157   -0.38669363155816
N           2.14577807655049    0.09136199198125    0.39993158647519
H           2.57644655505289    0.60796642405215    1.15912473664943
H           2.05515698309844    0.67400164587422   -0.48322634530280
H           2.64189021845332   -0.78785456366355    0.13247429273538
H           1.16117188273969   -0.23095846978128    0.64718176729804
