    26
        -50.46558926  Gyration_radius:  2.41127816645 Dipole_moment: 6.493
 S          -0.05094281313246    1.46746174008462    0.81973476333653
O           0.67081459176669    2.45533694390236    0.02250998192277
O           0.87299526741974    0.56300195204317    1.50541754720047
O          -0.98633467558131    0.71316779103565   -0.01131260077599
O          -0.87323586657955    2.23050429948668    1.88264500764149
H          -1.51678275486486    1.54713499718749    2.22413390188445
H          -0.90397558809331    0.26350767198003   -1.46636143950258
O          -0.77541838393531   -0.08270388947887   -2.40411302079755
H          -1.59661231013680    0.10951608627195   -2.85894207063274
O          -2.34380718999429    0.28153395555448    2.76029181782638
H          -2.19829059829196    0.18556619950724    3.70437086685667
H          -1.87075867126889   -0.47894683692709    2.33802021753922
O          -0.07741058302971   -2.33060677030881   -0.94264980713536
H          -0.40018137677677   -1.61048675298615   -1.51459044074355
H          -0.28177557037249   -3.15896434903838   -1.37863185115090
O          -0.68784318649341   -1.55466119630431    1.81477883359909
H          -0.02434470556060   -0.83508853189178    1.79642321589473
H          -0.71901595176230   -1.87866713730327    0.90625880100492
O           2.20315297586960   -0.91716421712997   -0.21919067308108
H           1.52610398064432   -1.59353828281457   -0.39026722348412
H           1.85534634920703   -0.40524054129395    0.54781497452105
N           1.65593096877191    1.01591206466747   -1.86532746171180
H           2.02320286890525    0.18672156959293   -1.28058429004527
H           2.36749717503104    1.42046406098075   -2.46330231552004
H           0.83480967710622    0.68372214137068   -2.39669859144795
H           1.29687638115637    1.72251703181637   -1.13042814319365
