    26
        -50.46714872  Gyration_radius:  2.44408797617 Dipole_moment: 5.810
 S          -0.37282059223963   -1.68478770338832    1.09036070226393
O          -0.22108209640716   -1.91290427535761   -0.33062018460616
O          -1.43874628570511   -0.72040902802753    1.35975390524172
O           0.86313937783041   -1.33937342878790    1.77015864290074
O          -0.83044169069513   -3.05747936996267    1.73694597381481
H          -0.27602687403253   -3.11671522776172    2.50827865133007
H           0.70977383934416    0.27982269725985    2.18854122916485
O           0.29927353391031    1.15887386419786    2.33357119900928
H          -0.63077464187582    0.93859294567141    2.45643501646936
O           1.44092500209157    0.93637043411793   -2.04006480376957
H           1.94555299598406    0.22682195888657   -1.59341091777192
H           1.15681194521570    1.53908992616811   -1.33888310596099
O           0.27636200732522    2.46797127442757    0.06509634330811
H           0.55719496284964    3.37264689280127    0.20799619414607
H           0.37969336407493    1.99869331321702    0.93797445820322
O          -0.73378333583369   -0.46532648798846   -2.57329810579458
H           0.12056704962162    0.03942813898346   -2.59283384025694
H          -0.55431488474388   -1.23346625059390   -2.00531763128991
O           2.33899667203204   -1.15045219733016   -0.56791482919068
H           2.49646961498441   -1.03659115138464    0.37408410366195
H           1.46668928246238   -1.58124312130809   -0.60517901378054
N          -1.82596826912327    0.88906447715701   -0.67608488792901
H          -1.46835833253648    0.34577533644566   -1.55809323647329
H          -1.76159487125119    0.21375268033545    0.13822652679626
H          -1.16393811676073    1.66332302818943   -0.49065091100158
H          -2.77359963658982    1.22852127399712   -0.79507147842556
