    26
        -50.46127342  Gyration_radius:  2.58584633876 Dipole_moment: 2.122
 S          -2.38853412251567   -0.03391934197529    0.08706920186738
O          -1.77064048952941    0.97366924139853   -0.76742173463555
O          -2.49810831526619    0.38498230100868    1.46195193936290
O          -1.72779961613323   -1.33365733162436   -0.03367265761050
O          -3.86191770668302   -0.21713981061342   -0.47913481414244
H          -4.36707262141185   -0.60163440968301    0.23228911473676
H          -0.65568675743791   -1.21238469792423    1.19024030019378
O          -0.08605930000447   -0.91919936787949    1.94352534765596
H          -0.68340980008210   -0.88590796250742    2.69501965825616
O           1.96918945871972   -0.52074217963083   -1.82316495795314
H           1.00960278382757   -0.63832389060445   -2.04431663120196
H           2.45278528967751   -0.86028455231572   -2.57677639220008
O          -0.59297016311429   -0.81922148199587   -2.38555324220128
H          -0.95523159078873   -1.33915518460488   -1.64683805649989
H          -0.99798987353105    0.04843237074056   -2.23949293498894
O           2.57175099283136   -0.96103052553890    0.92350150812281
H           1.75122062995101   -1.13436234594293    1.40126092551586
H           2.38075221535705   -1.14536552840542   -0.00822493490508
O           2.54160348956054    1.51720435586003   -0.08880333360969
H           2.39581321814477    1.07633660191599   -0.94391279537719
H           2.84670957059308    0.77806528039778    0.47857099718718
N           0.13778538844308    1.59245311168451    0.93293852662391
H           0.09626701304332    0.68718935093165    1.46147143103302
H          -0.08179786285944    2.36982538578956    1.54699365066453
H           1.11785784669336    1.68563769850301    0.49352015628392
H          -0.60411967749837    1.50853292302656    0.18895974782916
