    26
        -50.45993521  Gyration_radius:  2.82258389733 Dipole_moment: 3.717
 S          -0.70814106201124   -2.40864671045307   -1.52986408975075
O           0.74316139766196   -2.22809737820167   -1.49700589609050
O          -1.39733894861557   -1.28591121623809   -2.12469024784854
O          -1.22165332330527   -2.77439162492295   -0.21769622824848
O          -0.97154327996379   -3.65360353489180   -2.47726688438323
H          -0.49709076758215   -4.34676814757012   -2.02886279362143
H          -1.16662505732113   -1.66100105075911    0.89616822141439
O          -0.98066337766763   -0.96551229419434    1.58863787347981
H          -0.99046308078607   -1.42700050663892    2.42836685859753
O           0.76497679356978    2.84307881029754    1.78459263270159
H           0.59808668326529    3.16459698957461    2.67101262986516
H          -0.09152580869891    2.46335244666260    1.47091579189596
O          -1.51331828978640    1.70401683324349    0.98501143588338
H          -1.54077816935685    0.78428649606504    1.28909359891319
H          -1.49037404896542    1.65607090634677    0.01687471087608
O          -0.85786717957921    1.19383008209330   -1.65967764253402
H          -0.92854566933325    1.67054972549513   -2.48743520780439
H          -1.14098746896121    0.26118435955131   -1.85745564829712
O           2.91037059850252    1.40777415309494    1.08878761527622
H           3.52190187041638    1.99247595852497    0.63965082518603
H           2.18328192749858    1.97680506387730    1.42883934966065
N           0.98017272176932   -0.06656180779288   -0.07938817258337
H           0.37194813678111   -0.31418393777261    0.72403949495582
H           1.07839156289315   -0.94804576491524   -0.66028629114972
H           0.47174533330431    0.62137812951228   -0.66156407040289
H           1.87287849627195    0.34032403001277    0.26920213401056
