    26
        -50.47676531  Gyration_radius:  2.44734782417 Dipole_moment: 3.268
 S           0.43215692095281    0.19034967359284   -1.38027863427436
O           1.01216598252177   -1.05660575070964   -0.92587825693472
O           0.63549713373203    1.26665011275746   -0.41662082223675
O          -0.98948896971734    0.05422360032497   -1.71076581629777
O           1.18383067526219    0.57851489383406   -2.69139708265203
H           0.65042373096735    1.31524720412792   -3.04754164420108
H          -1.84351460558812   -0.45758417441446   -0.44263217503460
O          -2.32408916201198   -0.74262928252791    0.37578334822453
H          -3.23450273892724   -0.88697973287546    0.11294094938414
O          -0.89604643894712    1.17897802667995    1.75557260192583
H          -0.37366784724494    1.40999667475040    0.95757236767341
H          -1.60271668337909    0.60081490659524    1.42462514599530
O          -0.87218899412268    2.11511231758929   -3.33181610989973
H          -1.17528290406472    1.43951646558105   -2.69256988272309
H          -1.29901689940950    1.91351249817701   -4.16768773059659
O          -0.21516317095211   -2.39039184227821    1.02506704818578
H          -1.10649369364177   -2.02355094597283    0.90022369426626
H           0.27820953147042   -2.09033595171751    0.23281643111365
O           2.69490155672675    0.15775859358357    0.78942867031202
H           2.09983442555095    0.83165690978868    0.40105591565285
H           2.59403874393914   -0.57750311410895    0.16774601572761
N           0.88182851458825   -0.57259625243982    2.57398223919561
H           0.15964116751087    0.19881022254878    2.43370165190250
H           1.73396241458330   -0.28945158816796    2.00791024835824
H           1.10210607772775   -0.72945128358084    3.55020005387783
H           0.47357524246916   -1.43406219114370    2.09856177305990
