    26
        -50.46279136  Gyration_radius:  2.6021130822 Dipole_moment: 2.753
 S          -1.24676688981527   -1.86220557397737    1.23943420178191
O          -2.15312773088649   -0.72427793663532    1.20436108503831
O           0.11566934523445   -1.47812893095772    1.53618413436900
O          -1.35895278106047   -2.69320773997142    0.05105693121272
O          -1.72997466348869   -2.77284053348478    2.45000472300308
H          -2.56097404020494   -3.09545175503346    2.11712873647703
H          -0.38732564389320   -1.89811928480630   -0.85221592075161
O           0.24421738757955   -1.40827582943126   -1.45328066294894
H           0.49227692274315   -2.03843751724924   -2.13272553039914
O          -1.43411586593483    1.65343160570128    0.57009569686142
H          -2.19040845396720    2.20875966649727    0.76518303766471
H          -1.72276917436512    0.72356962716569    0.79656036017705
O           1.80431124961150    2.14568691268396   -1.99602833229491
H           0.86658258794220    1.84508389715749   -2.15061727536129
H           1.74610721538052    3.05943583698558   -1.71354638383387
O          -0.62904238310358    1.17584743659774   -2.00058107753619
H          -0.47239168189914    0.21964654302164   -1.94764624725692
H          -0.98141741068377    1.42196727239035   -1.12457849240043
O           0.82258534859172    0.99137061411823    1.95818049130094
H           0.05007050877318    1.45313612753092    1.58645634483936
H           0.51874945143551    0.06053580252513    2.06370056719008
N           2.06612909167368    0.19840327369432   -0.19830596686563
H           2.12339115423775    0.98024871415404   -0.90179903051453
H           1.40518638404631   -0.52099750970890   -0.56571453918365
H           2.97209220707410   -0.21959018441649   -0.01961962389456
H           1.63989789497773    0.57440944545590    0.71831277331516
