    26
        -50.46573143  Gyration_radius:  2.49397900624 Dipole_moment: 3.974
 S           0.42347231168289   -1.75796135294931   -1.28519473364474
O           1.12747372592339   -1.49869544325053   -2.50681381110126
O          -0.93782708127125   -1.23173233569987   -1.25860841672708
O           1.15651594807293   -1.36656719396491   -0.08457079633213
O           0.27876949911225   -3.34485764863822   -1.15747775124572
H           0.26212629904567   -3.64891280068265   -2.05983630501827
H           1.63058407402033    0.04972346853517   -1.02301484282623
O           1.81099521321501    0.95090055329177   -1.34492969659777
H           2.10788230885332    0.81923363963179   -2.24909210244264
O          -0.88719380823472    1.42067890179850   -1.61096991038752
H          -1.07121192534206    0.46205350085598   -1.59851668808350
H           0.08359130158282    1.47909883552323   -1.56595942023077
O          -1.89444896073992    2.46186552980408    0.55397941269821
H          -1.67721988298170    3.39377022181102    0.50844007816202
H          -1.60982070985989    2.07218216456548   -0.32070716560176
O           1.84559560927321    0.67624877270103    1.51915079503601
H           1.76097728001870   -0.19395823930640    1.08586019404761
H           2.08146810486827    1.26943845032128    0.79671559283703
O          -1.20155422085038   -1.74227134893780    1.26774224612346
H          -1.32445638721685   -1.56835355054315    0.30492420267852
H          -0.33155988518608   -2.15583047022322    1.29577635693726
N          -0.73367792890869    0.70148714600405    2.16625420806961
H           0.30595407715525    0.79066185491312    1.99333681773120
H          -1.01214838888987   -0.27578146875667    1.83955055381415
H          -0.95152595012969    0.81756540507371    3.14991008262666
H          -1.24276062322129    1.42001341809888    1.58405109945585
