    26
        -50.47003609  Gyration_radius:  2.62257852616 Dipole_moment: 3.715
 S          -0.31535804324369   -1.64189719578134    0.14769425892837
O          -1.27480054445665   -0.56519007434631   -0.07219233919502
O           0.22665052456113   -1.60757178176931    1.49929794301632
O           0.75050294504601   -1.61228361256672   -0.84953230081499
O          -1.10321215180783   -2.97872068283153   -0.02979116361610
H          -0.40965733065775   -3.64852878691185    0.12674826785958
H           1.18144825344588   -0.15339413774934   -1.37741383932165
O           1.42184539110121    0.77671801344079   -1.62494658669502
H           2.29467564725563    0.72814010807147   -2.01730046385847
O          -1.34930460029646    1.17489920261325   -2.20522211118671
H          -1.53324175713952    0.45170382061116   -1.58231159625033
H          -0.39766829886028    1.12629621082093   -2.36546799274311
O          -1.68919773453142    3.34059841230385   -0.67152891939371
H          -2.62050690515397    3.45843828783034   -0.48106343545852
H          -1.63921642057418    2.64655802521213   -1.37303036032811
O           0.94865891691031    0.59620978499028    2.77772030003903
H           0.64043570324929    0.50565669774403    3.68046675456737
H           0.74519667164415   -0.26186743583807    2.33880446072512
O           1.31610380198553   -3.89328117672981    0.51629695191503
H           1.57318070312304   -3.31517661566784   -0.21489605041491
H           1.23535411818524   -3.29871455665171    1.27500901994464
N           0.00864123130889    1.66648734592446    0.52218220852830
H          -0.59172785326287    0.81171376134726    0.37384389895390
H          -0.57592955675069    2.50557632622659    0.31945811173132
H           0.40313144820168    1.59657446766115    1.47871841494943
H           0.75399587075846    1.59105560196761   -0.19154344183079
