    26
        -50.47395398  Gyration_radius:  2.4082169857 Dipole_moment: 3.053
 S           1.01089436059046   -0.57009074075284   -1.32434464256979
O           0.26387919591710   -1.52951713741586   -2.10628528639588
O           1.17215898809297   -1.00923286560951    0.06710997240971
O           0.42435935285447    0.76259143574879   -1.37817281033904
O           2.45332336928474   -0.47747232723046   -1.93273788474702
H           2.95392155746820    0.03432400053351   -1.27852811713692
H           0.75501881955143    1.73472744345797   -0.04708654668253
O           0.92407720625399    2.11005912696799    0.84310886417908
H           1.81849746143085    1.82465180760876    1.05918915816555
O           3.24189969560548    0.44910356494751    0.51643157182007
H           3.96161026577009   -0.01571141897598    0.94729518364060
H           2.46070468692225   -0.15448359917449    0.53833108140256
O          -1.00394599947271   -1.52599636145079    1.51243051150214
H          -1.20636766130078   -0.62165821980626    1.80916747283900
H          -0.11333417785511   -1.45575746865113    1.11139408798819
O          -1.34643532150576    1.19682125604036    1.82681042931254
H          -1.65165052125877    1.79563719894388    2.50947594726239
H          -0.46072097415646    1.53736609827173    1.53732432506971
O          -2.17857123067553    1.07540774058938   -0.81304120334124
H          -1.27430654793521    1.13816290222316   -1.18070113304474
H          -2.06171062372463    1.23464179994488    0.14123352421676
N          -2.06040616929973   -1.53411009498661   -0.88412517988122
H          -2.80962643138928   -2.14488195699146   -1.18915387614951
H          -2.31313568736640   -0.49813199135428   -0.94446686913444
H          -1.77045495507774   -1.70114102008202    0.12891916892726
H          -1.18967863871700   -1.65530917279494   -1.46957774931995
