    26
        -50.47195422  Gyration_radius:  2.42416834336 Dipole_moment: 3.911
 S           0.46650620752450   -1.28148215988247    0.81783380280226
O           0.35942206202553   -0.04229568542240    1.58131060126079
O           1.72284804931560   -1.41598729540636    0.13097446939297
O          -0.67757469552774   -1.38605948658831   -0.11072054844792
O           0.34805594730249   -2.46821139658983    1.82310241253041
H          -0.56279953629440   -2.40126609746836    2.16442246595029
H           0.21803228385122   -0.79330853124640   -1.49387444807068
O           0.65683936833703   -0.34173182569285   -2.23682241466092
H           1.50860885264555   -0.78021832098033   -2.30584276811917
O          -2.20981047249571    0.41335621310371   -1.40291779936464
H          -1.80978287854909   -0.35954675286380   -0.96134830638079
H          -1.79596264373105    0.44474460045428   -2.27030923123997
O           1.33720129261571    2.13069128994938   -1.31011941632657
H           2.03995564192863    1.84111214468472   -0.68239854834134
H           1.13575339634471    1.33191770372498   -1.83765692648196
O           2.82524282577015    0.96876148654973    0.57257838136487
H           2.40078757416539    1.11943382288842    1.42138945624486
H           2.59848561020808    0.04211264581715    0.35827393081230
O          -2.27204910969862   -2.02320389059403    1.88892151122633
H          -2.86529625870971   -2.75039696281322    1.68762457383832
H          -1.89637394556130   -1.72275222434526    1.03877371931614
N          -0.72795560041155    1.92309486285628    0.24076798488616
H          -1.07693658747210    2.71469139585101    0.76846798699718
H           0.10485969574042    2.17997092666677   -0.40005816830868
H          -0.35944116915669    1.16248114115843    0.88182559883853
H          -1.46861590023170    1.49409240612793   -0.36419831963443
