    26
        -50.47159712  Gyration_radius:  2.3778871851 Dipole_moment: 7.591
 S          -0.96985182195776   -0.66324498028396   -0.85784032847706
O          -0.91196405766595    0.78182973572606   -1.06494903897593
O          -1.98543311916783   -1.01628863662613    0.11457807842071
O           0.35390435042751   -1.16334663154373   -0.44500008519410
O          -1.32875227182277   -1.34034039515052   -2.19929308259705
H          -0.49221052858343   -1.27191831460120   -2.73388250307316
H           1.32126247420506   -0.02038882109285    0.09492417246541
O           1.91974976140240    0.63770221746444    0.54489764184879
H           2.75818572128854    0.18951130035305    0.67116478434660
O          -0.52428764224279   -1.79965980794881    2.11341582437796
H          -1.22557741352148   -1.61703378548326    1.43974138034124
H           0.19252928029973   -2.15850282711440    1.58012188209540
O           1.35238338560898    1.48783417066046   -2.25726346239436
H           1.90108896910970    1.59753466365076   -1.47470577478394
H           0.44466559894411    1.38730609080435   -1.90742771056358
O          -2.09075747234320    1.56179940651936    1.11336462120876
H          -2.69141743528503    0.80785042586365    1.14728115728174
H          -1.68519328747411    1.47449357334783    0.21761177036982
O           1.10633067990531   -1.07885588878719   -3.03776909835061
H           1.29211790689788   -0.11530915984789   -3.01891441268046
H           1.26287540194327   -1.37706892230818   -2.13098693595356
N           0.01445184476358    0.75589515228863    2.44816687497835
H           0.17790864780925    1.14298853090870    3.37108419332143
H          -0.84972602016542    1.19323024683513    1.98263180488635
H           0.83246232785211    0.89875742847210    1.81355114202894
H          -0.17474526036428   -0.29477475206323    2.47549708507284
