    26
        -50.47336912  Gyration_radius:  2.47353276359 Dipole_moment: 1.181
 S           1.20956625583228    0.29447281684589   -0.69745113926501
O           1.43754410658674   -1.01099857225829   -0.10262048575554
O           0.78949666165982    1.26623484839331    0.30579437112871
O           0.25355033978082    0.23011007846968   -1.80204164817600
O           2.57838593803399    0.76088378130125   -1.27923909481901
H           2.34595275005890    1.51878768628223   -1.85146604987017
H          -1.18054856352261    0.94586750440198   -1.19062822500179
O          -1.86448447658076    1.41883319643220   -0.67846214412699
H          -1.37668080459291    2.10582402050812   -0.21675233802674
O           1.27996533666005    2.36730817783374   -2.92792643772259
H           1.42574964719384    2.28419881225050   -3.87294189172661
H           0.67147182024340    1.64485402737240   -2.67257411191636
O           1.13754596490530   -2.13805975007259    2.28234622924815
H           0.64012691725545   -2.92904827924582    2.06097040969999
H           1.47034052357276   -1.79407248390063    1.42811603336890
O          -2.46261796750231   -0.55484602178679    1.03214420936359
H          -2.06840888464664   -1.28304157311462    0.50597631608250
H          -2.48140467519410    0.20560112344634    0.40998074990600
O          -0.94621445819918   -2.12079316234986   -0.55169064738399
H          -1.15806687494553   -1.84786075218619   -1.44763111843821
H          -0.03590929145812   -1.79579735411324   -0.40708474724140
N          -0.33405221349978    0.09686118918889    2.36832654878641
H           0.21577405281036   -0.78125086967699    2.53411291826175
H          -1.29199259194936   -0.17047540833795    1.94321263170126
H          -0.42770841008823    0.64671939271315    3.21466704596458
H           0.17261891755119    0.63968757170189    1.61286264594079
