    26
        -50.47225103  Gyration_radius:  2.39564954865 Dipole_moment: 5.714
 S           1.31797665829452   -0.84726110697451    0.61272248392432
O           0.87532431432558   -1.31307946554442   -0.69296419852968
O           0.79486695632539   -1.65879968812884    1.69522835345977
O           0.93896334885917    0.56479585073061    0.81191378113767
O           2.86698281650977   -0.90044696445443    0.65484087443843
H           3.11887995149072   -0.52783835698216   -0.22631130037300
H          -0.49055208251071    0.98591754593282    1.38824705186371
O          -1.41534786011717    1.21138443714697    1.67591334513380
H          -1.32397814824159    1.80555884633138    2.42202302630214
O           1.01373784530265    2.01720577930770   -1.33557396919920
H           1.00742379940727    1.47709376531110   -0.50563830306613
H           1.24524897124787    2.91102082684901   -1.07750703885407
O          -1.72463963498126    1.33539130456581   -1.18980289359901
H          -0.82581760038417    1.59050124316140   -1.45419924564629
H          -1.77559685218788    1.48124841782685   -0.23614548498194
O           2.89187806564110    0.00843391815440   -1.79755976031725
H           2.43661629269467    0.86395918693304   -1.86194319758936
H           2.17370181905175   -0.64368061470596   -1.83934490685257
O          -1.72112722225371   -1.33954727801383   -1.19864812213126
H          -1.85780908865895   -0.37803211557537   -1.36697857053101
H          -0.74698972376545   -1.45094133791775   -1.20989473440890
N          -1.78845470259178   -1.45615466343291    1.37069510770477
H          -1.94208927005221   -0.47485943229415    1.66236038724084
H          -0.76777056117024   -1.67057922159975    1.57599957392207
H          -2.41213608608738   -2.10089134885119    1.84306847571126
H          -1.88929200615645   -1.49039953777362    0.27949926523598
