    26
        -50.46122109  Gyration_radius:  2.42845101162 Dipole_moment: 4.593
 S           1.81754624358974   -0.47177992579479    0.70199797470317
O           1.27032746797065    0.56396330280378    1.55457441167125
O           1.98302950262332   -0.01439575894352   -0.66273748115592
O           1.03872704344738   -1.70795794406748    0.77412051782214
O           3.23737594732904   -0.87264011437736    1.26297586740322
H           3.06467244177208   -1.78874819285990    1.44482143476937
H          -0.42481844840232   -1.60214145104989    0.28093099431136
O          -1.36896050267840   -1.50676781757325   -0.04459783584092
H          -1.77398463411524   -2.37016900856654    0.05028350951288
O          -1.16681211125736   -0.11458883665135    2.54182335527738
H          -1.48710382329772   -0.73300945488018    1.87749852348524
H          -0.21163663203885   -0.02710904324581    2.36947056348869
O           0.40878773833810   -1.39701428258206   -2.39095805870278
H          -0.30515877903970   -1.69515554393088   -1.81849574709585
H           1.11695241051023   -1.10875839472449   -1.78678736250364
O           0.48572885644932    1.31000939459941   -2.45842333213717
H           0.40572173496279    0.44767476193800   -2.90573089234656
H           1.21447971749055    1.15353023171469   -1.82930374949504
O          -0.75947377013164    2.32119571783641    1.42919766609052
H          -1.19039511170827    1.74387160429471    2.08590386501134
H           0.16424832073306    2.00891295928608    1.44885915711335
N          -1.52713598105553    1.17066461546575   -0.79213593668247
H          -0.73414507210256    1.29267599780270   -1.51263417397548
H          -2.40562937071627    1.51611095677662   -1.16365557737558
H          -1.60168990996629    0.16979489435355   -0.55569029094043
H          -1.25065323870547    1.71183133237581    0.09869260759264
