    26
        -50.47007399  Gyration_radius:  2.53582455671 Dipole_moment: 5.387
 S           0.98272067016064    0.65117154465827   -0.27719345822736
O           1.60158740515900    2.06867846849052   -0.21981540191966
O           0.58074839713661    0.41688568881684   -1.66122490581869
O           1.96925043772578   -0.31223976282233    0.18688922268265
O          -0.19727065885494    0.63771223273381    0.59728786497114
O          -2.00630329621392    1.28671159202770   -1.22060500199749
H          -1.30628040395985    1.36148779289799   -1.87990775501759
H          -1.50661948331439    1.12456692122330   -0.39562472464930
O           0.55420032857638    1.19324469358819    3.06497897455236
H           0.04437059879053    1.95011412248959    3.35866082486645
H           0.20601205348368    0.95663109496369    2.17733875943313
O          -3.08646833065552   -1.06624084841233   -1.71710032437254
H          -2.80944290486180   -0.14456022320574   -1.46880170507037
H          -3.64820526097099   -0.97848612516943   -2.48835123371076
O           0.27176448639104   -2.16978621908430    0.92294386331956
H           1.04138436065533   -1.58289908286057    0.73763781978500
H          -0.29751028489375   -1.64649176485418    1.49490806373194
O           2.95485501157512    1.54810285296353    1.89627652791465
H           2.21789526752766    1.47007494023315    2.53797403566553
H           3.04584908779337    0.66462566260639    1.51082730859344
H           2.19897402736652    2.05605563313433    0.58809235286189
N          -0.56848748068907   -1.92378010981954   -1.56832359127829
H          -1.60093922169541   -1.74325908269128   -1.66145840639313
H          -0.32796980759306   -2.18358061845722   -0.56631590585820
H          -0.24892398695704   -2.63542445543618   -2.21668846068105
H          -0.06519101164042   -0.99931495788005   -1.73240472346664
