    26
        -50.47376053  Gyration_radius:  2.38791987082 Dipole_moment: 3.935
 S          -1.02485078728313   -1.30915790664174   -0.78546077391948
O          -1.64484965847085   -0.62357833238136    0.33654862799025
O          -1.05122784107479   -2.74218955834810   -0.68783050026919
O           0.28456359308525   -0.74979607642787   -1.09581694934482
O          -1.91675839620459   -0.93845357486551   -2.06401550566479
H          -2.54837179974456   -1.64963438724387   -2.06880239788476
H           1.65958561194485    0.26633473652197   -0.79521737556675
O           2.22399736483556    1.03930633676723   -0.60563979962655
H           1.97570914625507    1.68768952578882   -1.27092972143375
O          -0.42370148707745    1.58519333771570   -2.11028363961616
H          -1.12724350978579    1.45602578006315   -2.74863323884352
H          -0.17703397290390    0.68348464839000   -1.81549192331228
O          -1.33804316417493    2.02059575939927    0.40273399723924
H          -1.64104967971133    1.08984156730269    0.45079653851048
H          -1.05271796084753    2.12611637883415   -0.52603550165859
O           0.09874227416926   -0.89960848983477    2.34662714603857
H           0.63733312293948   -1.62051366562361    1.95757474039673
H          -0.69387572084553   -0.86508356749979    1.77755928787511
O           1.21775838366624   -2.71431966584207    0.72091075342078
H           1.78172796213539   -2.29419649113414    0.06731561566194
H           0.39192675988817   -2.92648108294216    0.24706915335347
N           0.89593892631537    1.49814138603671    1.67484556150949
H           0.66812290585454    0.52076932631388    2.05427340777462
H          -0.01757270718276    1.85685282394785    1.24982011256202
H           1.24538214925956    2.10919255406661    2.40351399353447
H           1.57650850496311    1.39346865763539    0.88456836127452
