    26
        -50.47679058  Gyration_radius:  2.36804549676 Dipole_moment: 3.211
 S          -1.31650354507030   -0.74934731914900    0.32281666933075
O          -1.48684372718750    0.69203258993177    0.13550020108295
O          -1.32639680163817   -1.11181605131148    1.72471953919980
O          -0.07480956624358   -1.19053479892262   -0.33313403241095
O          -2.49533759540763   -1.46751358159262   -0.37247542554181
H          -2.26655725770246   -1.40387130339173   -1.33687983659523
H           0.93891123312329    0.09669791084721   -0.79366923194726
O           1.51263774275111    0.86612768726415   -0.98794962595348
H           1.05344046369948    1.33079189784505   -1.69683914459545
O          -1.39028551406145   -1.14403437339649   -2.69593336571028
H          -0.59955000789866   -1.43463062445206   -2.22143341703393
H          -1.28044822474364   -0.17908610151093   -2.80382750792929
O          -0.95944669429386    1.50956156323417   -2.28469465952137
H          -1.56706095466198    2.20577334907299   -2.53795149821454
H          -1.18824406974497    1.26962434501284   -1.35217013811922
O           0.55658862219974    1.99393348613310    1.25736329339616
H           1.11745105990315    1.80155313936946    0.47547439333964
H          -0.33449978923227    1.71998967576462    0.96054017141915
O           2.33708293945114   -1.46435508451818    0.81784227073760
H           1.48290820245399   -1.62085428850072    0.36819124133603
H           2.80499529940962   -0.84350532415304    0.25059366732783
N           0.91442785877335   -0.17602510452250    2.65915555393606
H           1.63562879743744   -0.71661893432497    2.11601035156666
H          -0.02411575204051   -0.62005652377226    2.43066551335918
H           1.09822723878115   -0.17378761604354    3.65613228594340
H           0.85780002194372    0.80995136523507    2.24195273158855
