    26
        -50.46206558  Gyration_radius:  2.4945483632 Dipole_moment: 3.826
 S          -0.04216514189752   -2.05577683486976    0.03077513288389
O          -0.43857274053492   -1.36622964628255    1.23265186701233
O           1.11152220346137   -1.42472449046485   -0.61270314629094
O          -1.11806158430835   -2.27641198959251   -0.91653838315756
O           0.44869237166365   -3.49626826455774    0.48325775625426
H           0.45227174060240   -3.99114507575759   -0.32980351938424
H          -1.31418366848174   -0.82125093829920   -1.49219665282435
O          -1.49575886538707    0.08431686697836   -1.86124795879127
H          -2.03455457945912   -0.06404183281692   -2.64145982404064
O           0.07882473386968    2.35779896254138   -1.71452855824141
H          -0.36019995128095    1.52776625459480   -1.96952992754309
H          -0.57021732543448    2.82805134805610   -1.18161979564777
O          -2.20920765625665    1.77848879850466    0.14952142377395
H          -2.01498702409270    1.11132744150809   -0.53894150487560
H          -3.03883509405677    1.51732772034313    0.55173090567879
O          -0.22231010659098    1.18523822782165    1.94168277763910
H          -0.96034038545306    1.55465731373593    1.42108102611871
H          -0.35254868682253    0.21702179969351    1.89680754653684
O           2.40575964172476   -1.18158506119482    1.79220338038430
H           1.68318763267679   -1.32256238771522    2.40787222291213
H           2.06998170701523   -1.48710816046725    0.93973155188603
N           1.61285744902447    1.08473908069579    0.07704264218765
H           1.47641883787729    0.08917759808390   -0.24172854098179
H           1.25250883531646    1.71624884961687   -0.67268089517231
H           0.99033887188189    1.20224882744882    0.94111428238337
H           2.58957880493647    1.23269560240107    0.30750619130470
