    26
        -50.46570619  Gyration_radius:  2.49173039503 Dipole_moment: 5.731
 S          -1.72122125218831   -0.42416347726046   -0.66156499329955
O          -1.35711811399723    0.87308951902191   -0.06471096934677
O          -2.40835523382744   -1.27719137731150    0.26233156410652
O          -0.53820822580284   -1.04958773925459   -1.25244950284534
O          -2.69240453897343   -0.08776318923029   -1.85357135820191
H          -2.18740679765776    0.53920105678841   -2.38908885363624
H           0.74165533240561   -0.10700238592673   -1.72326154155709
O           1.43021696347975    0.57141210546607   -1.89951826313669
H           0.93249527480577    1.33401146561071   -2.21446710918555
O          -0.18400571325037   -2.65702159623973    0.76486843534755
H          -1.12118020303032   -2.48157347575187    0.95521110442399
H          -0.10992093804821   -2.28041899396577   -0.13707422452459
O          -0.64189581932919    1.02311648142214    2.42833783919559
H          -0.38930175031873    1.94489112647205    2.50988853939353
H          -1.03435320156981    0.93497547122162    1.52327299413957
O           2.85149063969445    0.31688746368238    0.28314588265964
H           3.60077084409238   -0.18036987869073   -0.04914461900746
H           2.30101698236648    0.51578244489358   -0.52118764470650
O          -0.98484564520043    2.03991080170126   -2.33432742798408
H          -1.05410025232490    1.72704672141607   -1.40074367927584
H          -1.42490621862242    2.89108966394452   -2.37124022694359
N           1.21459973760707   -0.83977758240797    2.04563530164889
H           1.89659716047076   -0.41560260173231    1.36019067735354
H           0.67742287187406   -1.63498753473198    1.56636423575313
H           1.69426999079580   -1.17855192995338    2.87251494642371
H           0.50868810652738   -0.09740256919723    2.30058887321122
