    26
        -50.46854481  Gyration_radius:  2.52530207572 Dipole_moment: 1.468
 S          -1.36843066434952   -1.13792096012300    0.59725850774080
O          -0.77002492349707   -1.12704535006371   -0.73294630356126
O          -1.27236683722089    0.16359611769822    1.23119371796075
O          -0.86601420239870   -2.22737163036872    1.40636876869715
O          -2.91630377906860   -1.40307295334685    0.39616007296025
H          -2.93380499781627   -2.32164019861436    0.14975652177640
H           0.73339827156556   -2.03056196002052    1.53747588481225
O           1.70382989544436   -1.84536263484501    1.59536585163222
H           2.05054780151104   -2.45638332941826    2.24788174447080
O          -0.17262022532479    2.87415169750307   -2.07440591257692
H          -0.54070230772663    2.79841218486482   -2.95599527862045
H          -0.91392061885507    2.68610402580582   -1.45502279165075
O          -2.09982284577788    2.08241031475008   -0.38977262207059
H          -2.52642283502521    2.71067713421864    0.19564469284128
H          -1.82119208358025    1.33525677387865    0.18316360978597
O           1.28210025952622    0.86534348300303    1.71524808585613
H           0.31709465530081    0.74918587793751    1.78314671694451
H           1.64583406149946   -0.02856741365028    1.83697319610392
O           2.02225192736596   -1.72857794406335   -1.18711379189959
H           2.16294687010016   -1.85822059898168   -0.23679545368804
H           1.07651367556569   -1.87712210574957   -1.31132118496001
N           1.06093940642284    0.78125913765537   -0.92511903745299
H           1.82373731611854    0.22023789147775   -1.32546763491429
H           0.23119283559259    0.13488468316223   -0.90592383092071
H           1.27818844025921    1.00136654807261    0.08558890955447
H           0.81305091436455    1.63896123924102   -1.46134241880817
