    26
        -50.46724390  Gyration_radius:  2.42491921468 Dipole_moment: 5.171
 S           0.99082884386484    0.91257681632239    0.57414090113746
O           1.02611741587493    0.64335159778734    1.99326811954978
O          -0.31809241147930    1.49309711845660    0.18719814198897
O           1.23711451943695   -0.28126128128754   -0.22672616326475
O           2.07349631666180    1.95877855661295    0.25176308793389
H           2.14802704499925    1.96274935700306   -0.74364734510967
H           0.14250547879775   -1.09536707699388   -1.14809854460733
O          -0.64741062432455   -1.58748257689079   -1.48503960005890
H          -0.44025521572130   -2.50893032523229   -1.30071287456532
O           2.06418682892111    2.03922982837511   -2.33826381648408
H           1.15957207727919    1.69068973445247   -2.53386339609591
H           2.06778005381472    2.95483570052662   -2.62574572320300
O          -0.45152429250998    1.22170240997077   -2.44977232124030
H          -0.49290718388739    1.39956357598538   -1.48628618346576
H          -0.58516296984900    0.27399939218063   -2.55144661263108
O          -0.78518622021683   -0.91265540266143    2.99218949837650
H          -0.03853117189867   -0.33445693953800    2.67991484164539
H          -1.04821288148803   -0.56045193793394    3.84366307494137
O           0.28889273504193   -2.58379660686177    0.95274246171058
H           0.84850902431014   -1.84634665064890    0.66087572708786
H           0.15112553036040   -2.44945591902949    1.89379704043373
N          -1.91503538479944   -0.49184714239522    0.57902436286871
H          -1.55355055798986   -1.11115165586408   -0.20204262045186
H          -2.91761284927126   -0.35035651883140    0.51535330584766
H          -1.63317069387312   -0.86283649435961    1.51388412251291
H          -1.37150341198611    0.42582247089124    0.45383050512813
