    26
        -50.47163231  Gyration_radius:  2.41165076935 Dipole_moment: 2.534
 S           0.41720943228640   -1.88137861121264   -0.32821640694956
O          -0.38261625022775   -2.35585340308171    0.77902028053451
O           1.20864626559041   -0.70708303896947    0.00328915843286
O          -0.33848741021656   -1.69372391273142   -1.55577878962322
O           1.48607933375120   -3.01896182713043   -0.62816199188924
H           0.95875980630529   -3.81118945076001   -0.64603729605557
H           0.19448058940341   -0.31998100866059   -2.23478746822826
O           0.61125641511576    0.52888589367029   -2.52160983721775
H           1.55483936024486    0.37827902629941   -2.43001899580833
O          -1.81428901884208    1.28954609081350    0.97765679026425
H          -1.21031475118782    0.90561148957177    1.64601178992097
H          -2.24601129668841    0.50825587502131    0.56037065707682
O           2.07798628959855    1.66646618475717    0.97286662188790
H           2.05967397570387    0.77718574635035    0.57994677422733
H           1.73137401575067    1.54247851832840    1.86281760209653
O          -2.52347128800510   -1.03631661845403   -0.10094917860220
H          -2.16829705423003   -1.12916918241914   -0.99356943772072
H          -1.94102016422825   -1.61660892072811    0.42113310303220
O           0.09825900304665   -0.06060129436462    2.34474577434026
H          -0.30372594792647   -0.84436595265558    2.72698995061995
H           0.50962685941914   -0.38306587357528    1.51747216355234
N          -0.00056105966687    2.27788499251534   -0.60411412316259
H           0.16740467618721    1.61923910753847   -1.41399017560389
H          -0.17220945589856    3.22135886776714   -0.93266864157908
H          -0.82639974504044    1.91454038092526   -0.01153738229046
H           0.85180740974787    2.22856691115474    0.00911904874766
