    26
        -50.46289622  Gyration_radius:  2.54395118124 Dipole_moment: 3.440
 S          -1.66152478965030   -0.39567746166617   -0.90701666944655
O          -1.91389842942006    0.03162096259540    0.47388392373568
O          -1.47968394781443   -1.81570366884964   -1.00249076371450
O          -0.49782261172583    0.34426616140620   -1.44373486637275
O          -2.89604761883010    0.00948135603501   -1.77175257981354
H          -2.83159420355966    0.97765342873265   -1.90253392153581
H           0.65260000236491   -0.78992340872464   -1.14648229815093
O           1.21236077087208   -1.54818822295854   -0.85225265829246
H           0.83517090220815   -2.30185039540876   -1.31532531531669
O          -1.90798304267272    2.43195214740012   -2.20029679446927
H          -1.18514105234605    1.82259914115853   -1.94706797362260
H          -1.77336330860066    2.65325403695071   -3.12409824838852
O           0.02764988312186    1.83836917638461    0.91567737123858
H          -0.82243078576443    1.36093487129652    0.91273204875253
H           0.34031698829808    1.74699737535902    0.01035255762680
O           1.47812348829332    0.33827590581174    2.59758886019444
H           2.27330321759970    0.17277502379656    2.05641711792514
H           1.00570406346385    1.07210700578777    2.14456010977883
O           3.21968800935076   -0.28719739733335    0.59686579502958
H           3.62475315252572    0.37841551921143    0.03915759630117
H           2.63808656958427   -0.81228514379884    0.02553095676765
N          -0.07164814384012   -1.47354317548874    1.58822873108932
H           0.43547508936874   -1.72424174120058    0.71407931965429
H          -0.92719578518110   -0.93803484646281    1.27246612731160
H          -0.33655904883803   -2.29991367365215    2.11265090976174
H           0.56166064119010   -0.79214299638433    2.15286069394454
