    26
        -50.46629275  Gyration_radius:  2.50657348131 Dipole_moment: 2.745
 S          -1.86734884135014   -0.73114372974376   -0.72480122731109
O          -1.97576255189884    0.67637589470113   -1.05971300631452
O          -1.33491646829161   -0.91957677861819    0.61995359031549
O          -1.15809937343955   -1.51753090463194   -1.71289081901451
O          -3.34839921176341   -1.29663801705414   -0.70359287859487
H          -3.18973184314862   -2.22833003953660   -0.81090544153784
H           0.21144766767979   -0.75397185129587   -1.96644622594950
O           1.06081068289990   -0.27003488483032   -2.14096291055837
H           1.06957423643378   -0.10308111514058   -3.08488231149875
O           1.65476633484940    1.40621364607382   -0.04070533089888
H           1.64652390532642    0.65973988646281    0.61050295652535
H           1.50717759405367    0.96638253439038   -0.89583125566826
O           2.73799573777223   -1.85279486575592   -0.60044713457473
H           2.15945853593783   -1.40339094367962   -1.24176583430743
H           3.59887254055927   -1.43690091768809   -0.67244817478682
O          -1.03558338653612    0.64402440944940    2.75645042730821
H          -0.16017363420231    0.33404003299840    3.01130666336509
H          -1.34926373688183   -0.02289470393453    2.11221957405580
O           1.24736668464782   -0.76516485614001    1.41776689161744
H           1.81125323450508   -1.35734248382315    0.88754117350903
H           0.33688788046090   -0.94785979780415    1.11765837468910
N          -0.73243169911777    2.22031034698272    0.63213018786386
H          -0.88123312492963    1.77606067932768    1.57612362739471
H           0.28695681265000    2.05002389417931    0.34877681272704
H          -1.31747698251869    1.67032144173431   -0.06197489405059
H          -0.97867099368821    3.20316311336561    0.62693716567850
