    26
        -50.46538912  Gyration_radius:  2.48766378542 Dipole_moment: 7.198
 S          -1.90064321273801   -1.11815628082695    0.35591337224205
O          -2.03039506932660   -0.02986486412808    1.32176880791875
O          -0.55451769611813   -1.64650367729809    0.32218407337793
O          -2.41942192173006   -0.74289660003721   -0.94692564377606
O          -2.83235885910447   -2.29050543097465    0.87212415420864
H          -3.69476565873731   -1.96140705374834    0.64307705393423
H          -1.50125583155593    0.36089054985065   -1.59689171779060
O           0.88006971379496    2.19867453489348   -0.41266130467807
H           1.02595864279486    3.07534539008028   -0.77050205507000
O           0.82588788992701   -1.22895984330250   -1.96977365715694
H           0.30965552441866   -0.49508766380469   -2.32386332933641
H           0.31434831023543   -1.54951125248286   -1.20509219166191
O          -0.91039048718648    1.03869082127995   -2.02546943174511
H          -1.46434794693560    1.50033351727668   -2.65714970821365
H           0.22317266809711    1.76096143563285   -1.00076198808644
O           1.75503718596434   -1.17202188704999    1.66246383654796
H           2.30291678500679   -0.84957976997006    0.90191997123744
H           1.02408111319833   -1.66271462385091    1.24878915696414
O           2.72517341549681   -0.01679503718227   -0.51191183396943
H           2.29492114718828    0.84738895326294   -0.49403457000656
H           2.19696226721412   -0.54746995227727   -1.14880177388636
N           0.29020659066757    0.93148424062509    1.96813119021406
H           0.55423502035006    1.55590039703741    1.19005042039668
H           0.96043092589754    0.06983975316533    1.95698267921333
H           0.31142000398674    1.41866981104978    2.85662837213194
H          -0.68638052079091    0.55329453278929    1.76380612700010
