    26
        -50.46732225  Gyration_radius:  2.54773963405 Dipole_moment: 3.430
 S          -0.81437006836025    0.08076117079549   -1.39223074253126
O          -1.68560092543339    0.04798498141251   -2.52935749836379
O           0.00859462403957    1.28935498137846   -1.31839223536185
O           0.23788857180508   -1.11563703532367   -1.53694315828127
O          -1.45337620119801   -0.19057256662824   -0.10982838042327
H          -1.15323153184041   -1.77710141626679    0.47664356823599
H           0.57054126637357   -0.95636955135363   -2.44380895184057
O          -0.74230089848970   -2.58068199978709    0.85257645393108
H          -0.13138964873239   -2.88329551950563    0.17756586118395
O           0.59049231257061    0.04947527496629   -3.86211100287732
H          -0.37544823346098    0.09782844591349   -3.73150766902223
H           0.92142053810917    0.91963929168190   -3.62249217469953
O          -0.41727354144979    2.95722632285549    0.78962654793260
H          -0.28848488366726    2.42001595544353   -0.01518744793689
H          -0.69639960225537    3.82225463972761    0.48840636112803
O           2.11781508510121    0.41764226792109    0.01721506838442
H           2.21401331480771   -0.47177193119872   -0.33194141584705
H           1.45610946573489    0.85577409008352   -0.56170447754493
O          -0.07940915236417   -1.67819812094437    3.29326686858303
H          -0.79092428887216   -1.91923780409224    3.88803902048491
H          -0.26928958742999   -2.13925718368644    2.44491964782118
N           0.16198915728433    0.55774234097968    1.84194098600993
H          -0.01458425100827    1.53051748112365    2.10122937834182
H          -0.56357111561520    0.29661959657011    1.12032224495626
H           1.08195551885284    0.50325718828809    1.34322714090962
H           0.11483408544754   -0.13397091035435    2.62052599683818
