    26
        -50.47192496  Gyration_radius:  2.43566469525 Dipole_moment: 1.737
 S          -0.61723670497510   -1.42133355462725   -1.32839387049243
O          -1.66008534340898   -1.24773465278149   -0.31172679151214
O           0.66410604870299   -1.73140318769840   -0.74259361446404
O          -0.59158266916958   -0.30778229535676   -2.25881691999953
O          -1.04331197918214   -2.68998131955958   -2.17452728611623
H          -1.76857508480878   -2.35596193101005   -2.69217759224359
H           0.96220709383616    0.30550123037539   -2.12963243385295
O           1.89100673862068    0.45604010710124   -1.85481359396481
H           2.20110874025663   -0.42952381688807   -1.63827635869310
O          -2.08815882668223    1.37710255875548   -0.70439584160801
H          -2.13686958735997    0.42047478512926   -0.52749887278543
H          -1.60221217796893    1.42407386968563   -1.53453486170437
O          -0.69282037459913    2.02925124115867    1.48375120003696
H          -1.26865251203473    1.99000803143909    0.68749472376962
H           0.22190754832163    2.03097188060974    1.14944315033847
O           1.85221716964539    1.58246283279834    0.51465319389375
H           2.54947136233801    2.23908403698054    0.54070604629684
H           1.84498254351290    1.22325967358623   -0.41432197805208
O           1.73432782348553   -0.96343384876826    1.58990711312556
H           1.49728491383206   -1.40381984118730    0.75039355923611
H           1.96085158185453   -0.05052585551581    1.33714981201161
N          -0.79960531004242   -0.50958392651836    2.08328298365808
H           0.23037181838435   -0.77908796762835    2.08261398983346
H          -1.21132815959033   -0.90490693994617    1.20069557090558
H          -1.29161127376547   -0.84318149741169    2.90362537619194
H          -0.83779337920187    0.56003035727665    1.98799329619265
