    26
        -50.46882324  Gyration_radius:  2.54652962402 Dipole_moment: 5.058
 S          -0.06424113761833   -1.37097189174972   -0.35992878657140
O          -1.16169173801280   -1.10859365924507   -1.28237468992759
O          -0.39522921570390   -0.92020485243614    0.98989743312802
O           1.17727025569719   -0.73977365445166   -0.81952394228145
O           0.15265616359614   -2.89862163687173   -0.33097408206660
H           1.10359264390470   -2.99582581226799   -0.02865710487143
H           1.16500498959542    0.82610634394229   -0.98753902390046
O           1.07549643920633    1.81309289263759   -1.10958979206115
H           1.92564429880202    2.11873647904619   -1.42923498952423
O           2.58298187814766   -2.65350053279278    0.44133164319121
H           2.42879195436054   -2.35422231039497    1.36216209606612
H           2.53849537522549   -1.84782779456310   -0.09559896486353
O          -2.77951731620697    2.19033305282911    0.23574144835828
H          -3.35503590421921    1.52116797434346    0.61087273774752
H          -1.93435557823501    2.14073418816906    0.76291926979078
O           1.54049029500398   -1.58551939523207    2.66477909761149
H           1.14418560770896   -2.07217552344207    3.38911489695614
H           0.79510427502082   -1.27254251924122    2.10647543229631
O          -0.43704309837141    1.72693465383795    1.29059711386513
H          -0.43065036788691    0.74662590237791    1.29153501901636
H           0.23286871944309    1.98555076471748    0.64454196214747
N          -1.47089404143483    1.36911043264264   -1.89847147143321
H          -0.51598122805957    1.75621331070798   -1.77041781797480
H          -2.10224523535912    1.76480384109157   -1.13952733513402
H          -1.83069033844963    1.54982445048736   -2.82880133187592
H          -1.38500765647925    0.31054530533975   -1.70932880749565
