    26
        -50.45291211  Gyration_radius:  2.59145693966 Dipole_moment: 7.227
 S          -0.62568907545498   -1.42437972066546    1.59094277801608
O          -0.55602453692777   -1.44909749343219    0.15270466374855
O          -1.45359991793164   -0.31885834748927    2.08090485275602
O           0.68051165481062   -1.42908332939761    2.23336750302101
O          -1.35409566434049   -2.75329235799092    2.04720712247623
H          -1.30949466024542   -2.69337711331918    2.99615188450486
H           1.49778837352307   -0.27182487905495    1.58140362275837
O           1.94904461348627    0.54801128296834    1.22585754563805
H           2.63524935856647    0.76198762252020    1.86101407481213
O          -1.77126355295818   -0.46772002193813   -2.06724032888080
H          -0.98028722064293   -0.75757892278649   -2.56311637359088
H          -1.62194531239211   -0.86936616735840   -1.19405803059160
O          -1.56106679204500    2.03637027305840   -1.48711855434659
H          -1.61101514264141    1.08023838202996   -1.80244976249665
H          -2.46284805066377    2.35953723235514   -1.51405135557216
O           2.60920876426986    0.42487319949721   -1.46485887140103
H           3.42910398638966   -0.06633088069627   -1.53919157650542
H           2.37705838052893    0.44291827421342   -0.52143743180854
O           0.73655104742453   -1.42575325669543   -2.36874208903517
H           1.35854313534717   -0.69320855133428   -2.22469700567591
H           0.45614949830235   -1.69581647466976   -1.48377492281671
N          -0.48224022305863    1.75423964382243    0.89142133792744
H          -0.58810384285998    2.60561408443267    1.43398482964562
H           0.51612006305991    1.47887863311519    0.84613802186313
H          -0.97962152281456    0.93623299163247    1.37973104151737
H          -0.88803336070172    1.88678589714301   -0.09009296596930
