    26
        -50.47133886  Gyration_radius:  2.3769120016 Dipole_moment: 2.943
 S           0.64187540433405    1.63954998770063   -0.05479154741607
O          -0.43688155582435    1.33148054723573    0.85757003577446
O           0.33510977860721    1.27223206928017   -1.43205640265011
O           1.92627527315308    1.10595434562122    0.36085333379993
O           0.78926066010354    3.21249065551913   -0.03632440369640
H           1.58814719031483    3.34669944411958   -0.53484151361178
H           1.86441902367875   -0.56873326455014    0.40165636325869
O           1.70752637694426   -1.53437222464878    0.49201041707479
H           2.22385852461244   -1.79255275061194    1.26025047806786
O          -2.27134766954692    1.19305406503711   -1.15748003284598
H          -2.19940789701252    1.44459327639194   -0.22807663024206
H          -1.35898173602611    1.33314108110414   -1.48700507450399
O           0.55246491661023   -1.32731084162759   -2.04393582459183
H           0.58932368301430   -0.35138340882142   -1.97789243123115
H           1.11169185083788   -1.65112913463632   -1.32337500060499
O           1.47594194152799    0.23258331297507    2.91948254679655
H           1.73073750029807    0.66515633716914    2.09102789928654
H           0.60844824328880    0.57956017672048    3.13535313571252
O          -0.87058143785764   -1.26554878092739    1.35110733241706
H          -0.80185469184949   -0.29049223284726    1.35437102459865
H           0.05026483442528   -1.55943310805270    1.20621219018658
N          -1.88278661794741   -1.43007442681326   -1.04606379019029
H          -2.22375414213071   -0.43828805911739   -1.18274166097075
H          -2.57431606659923   -2.11816622657286   -1.31889222816520
H          -0.97494963709037   -1.52390231885619   -1.59041525365113
H          -1.60048372986461   -1.50510852078405   -0.01600296260572
