    26
        -50.46146374  Gyration_radius:  2.62307276019 Dipole_moment: 1.535
 S           1.28470663198718    0.08346069843745   -1.96878250608080
O          -0.13730130152247   -0.04317070360526   -1.67410827987293
O           2.07783276788447   -0.93860418832069   -1.30118572225373
O           1.77910574675717    1.42191056349984   -1.72863811885138
O           1.41824723069213   -0.19549339598999   -3.52592296486789
H           2.36117569890472   -0.20721493309720   -3.65875237390594
H          -1.21551653181729    2.79540453509534   -1.29186101549248
O           1.20981350528878    1.95838711227856    0.80234850870951
H           1.62537327560146    1.88170506798975   -0.08358258922377
O          -1.14693284380796    2.12277902081946   -0.61291330123931
H          -0.77311438150211    1.32446264658092   -1.06475264917260
H           0.30541820438209    2.24109488861148    0.59136276370827
O          -2.89348146414969    0.77439520360368    0.97761535573106
H          -2.39045396258648    1.35429695800492    0.37494818021642
H          -2.81068149496351    1.15275082743761    1.85418189018863
O          -1.42258382732424   -1.38688023725131    0.29816197443109
H          -1.13634108441296   -1.11239510081215   -0.59097588367371
H          -2.08911904244964   -0.72140978277204    0.56848365616577
O          -0.13310650453184   -2.84799063949886    2.40040861838819
H          -0.35117774530304   -3.74300309289827    2.66165591133798
H          -0.75746006589327   -2.60576569736338    1.70250797177358
N           1.05180715418739   -0.66310275493803    1.08375080473547
H           1.36787592119615   -1.19918041021720    1.88891030656948
H           1.14706778427710    0.38401522500210    1.19538303874805
H           1.58073864494722   -0.91343264487593    0.20397786271003
H           0.04810770415299   -0.91701915567473    0.89777854123003
