    26
        -50.47117736  Gyration_radius:  2.46039784988 Dipole_moment: 5.157
 S          -0.25687401042649   -0.33022216102893   -1.67938413633253
O           0.47885588542144   -1.57046728532012   -1.61733765801800
O           0.52253897181136    0.80264585733628   -1.16616919843930
O          -1.53739267216520   -0.39917015891242   -0.96341879524517
O          -0.55917787759671   -0.04127176687476   -3.18224186808055
H          -1.13576841135277    0.74592030097040   -3.16894297132720
H          -1.25783226783813   -1.61089365230715    0.16870750292230
O          -0.79282774090141   -2.31907709082747    0.66623626894617
H          -0.32692187148167   -2.78635267451218   -0.03796255890638
O          -1.02859669363635    1.80654298972623    0.67999802365574
H          -1.73531881737056    1.15591053716811    0.61572819296232
H          -0.38739123174627    1.53343897956649   -0.01828826221461
O           0.45232211169643    1.28091960013222    2.79240774120125
H           1.10164332917481    1.98431467544220    2.84096415876168
H          -0.17614584243564    1.54314436605462    2.07007962155994
O          -2.19343669009627    1.84233716393281   -2.24531902148480
H          -2.26531703697105    1.05730299582970   -1.67390789883966
H          -1.78462016976946    2.52724318965164   -1.70845840936630
O           2.56467098599671   -0.60040990646993   -0.30533115338302
H           2.05925235607039    0.18775184725209   -0.58969030903510
H           2.17454721040762   -1.27901992812401   -0.88312548642778
N           1.22483261592824   -1.11389907571505    1.90231405594156
H           0.93321378221067   -0.19451337298676    2.32803784163207
H           1.68393387502415   -1.69639093120740    2.59441771458367
H           0.37060980605884   -1.60930459816727    1.50846455320732
H           1.87120041398461   -0.91647989059724    1.07222205172665
