    26
        -50.46936868  Gyration_radius:  2.54136255308 Dipole_moment: 2.059
 S          -1.45366656994679   -0.81948659420729   -0.19001739517261
O          -1.92185243624771    0.54222206668269   -0.46130993911186
O          -1.39485627237755   -1.10137776795630    1.23070224275116
O          -0.16916040771420   -1.05276933888230   -0.83926033466080
O          -2.48924562470818   -1.80610389066579   -0.81668600618636
H          -2.55561139497740   -1.48506447429303   -1.73483350494579
H           0.66172599874988    0.21991333079004   -1.50812217357208
O           1.21094411727821    0.99158497254008   -1.77695829890752
H           0.91962762238840    1.22365473587613   -2.65988621248702
O          -0.01369958003191    2.22244999709054    0.30952131217241
H          -0.83883395670376    1.77281705408663    0.03048102920975
H           0.62167897061028    1.99675632778977   -0.39693094745112
O          -2.51607218302632   -0.14062483665382   -2.90095854293332
H          -2.27798720016981    0.34116394133326   -2.07995953266099
H          -3.37467258646014    0.19137541890495   -3.17234047066644
O           2.58388991284960   -0.67188526623061    2.38492112028348
H           2.63361303573647   -0.86287773415750    1.41121034145073
H           2.59834912892946   -1.52786268259326    2.81622350776398
O           2.43683906545953   -1.19577701194735   -0.18414005755659
H           1.49137291324994   -1.35787767313447   -0.36418570065116
H           2.66011671456658   -0.44205682416939   -0.74005563628222
N           0.24411231078682    0.60011183678312    2.35417504807750
H           1.19434204161073    0.15021001597208    2.44434063538176
H           0.25700136121068    1.35922577764652    1.60238869415773
H          -0.44174277270389   -0.12755251341122    1.99970249139442
H          -0.06621219835726    0.97983113281650    3.24197834060082
