    26
        -50.46857991  Gyration_radius:  2.40034802355 Dipole_moment: 7.184
 S          -0.59765777254625   -1.48072794511417   -0.61334012385589
O          -1.51464784138642   -0.42014274784923   -0.15682297186217
O          -0.31602837656964   -2.45188147191358    0.40353573589864
O           0.62670764737896   -0.86295033034722   -1.15096442618922
O          -1.30145129250987   -2.19724135977674   -1.79981565070606
H          -1.60319296955479   -1.46040947982978   -2.36961947772998
H           1.78282506137280   -0.52212305473471   -0.12719692901525
O           2.47374894176891   -0.17931712848593    0.50758284520725
H           3.31681260447231   -0.47018107667364    0.15759828133220
O           0.89638796479189   -1.39622164671227    2.52422898839440
H           1.67096459405153   -1.06143860969123    2.05278027835171
H           0.43596385437690   -1.96197939016116    1.87098318218485
O          -0.37953453789404    1.51699129020722   -1.39162596624678
H          -0.99690445113184    0.95091015684505   -0.86031689196566
H           0.27276994640946    0.83936427046087   -1.65283036126981
O          -0.82095547560750    0.56143730766908    2.21216257916126
H          -1.26957309352617    0.16465494232116    1.43416160125643
H          -0.24517883936501   -0.17151411390956    2.55434112546290
O          -2.17580848781152    0.02583628148725   -2.98949282946594
H          -2.97443838114149    0.13670465882382   -2.46700020587446
H          -1.58019134362828    0.74726344866648   -2.73220142373285
N           0.88259456566195    1.97624377227487    0.92233344652256
H           1.68830777593717    1.32833768758977    0.83794588379809
H           0.43044423442401    2.04925248622504   -0.02433132515584
H           0.14130690176819    1.46020958385530    1.56601680868613
H           1.15672877025729    2.87892246875596    1.29188781681736
