    26
        -50.46247261  Gyration_radius:  2.52712117933 Dipole_moment: 5.146
 S          -1.05630297375098    0.08636260713251    1.31678640060782
O           0.04968493893680    0.65496711643968    2.03275175463316
O          -1.00405361911838   -1.36909889502562    1.21896856339349
O          -1.18235423433847    0.65714628524618   -0.04460202912399
O          -2.36036785297793    0.46376234257416    2.08632612308973
H          -3.06844624148662    0.16730772095237    1.48610916170755
H          -0.85438129087263    0.07688099165087   -1.64088097280847
O          -0.40610396873486   -0.32316393187672   -2.41363990876809
H           0.32020531727112    0.27848353909007   -2.60389263043649
O           1.39545596394195    1.30592560049547   -0.65268552024160
H           1.73748665196252    1.89419024037192    0.05067927109101
H           0.47313633390540    1.14548338069256   -0.38296799666052
O          -3.72637962993509    0.00326528739159   -0.14290537564116
H          -4.27679641563268    0.72580443498103   -0.45270194006074
H          -2.80120750257297    0.24937160197201   -0.34289860229915
O           1.96606939102448    2.48803776020864    1.70123831704771
H           2.69850912228674    2.16481498149468    2.22880403668942
H           1.20366978015562    1.92583213231598    1.94507009965750
O           2.77793649431254   -0.91255895015671   -0.39381017133451
H           2.30180490790753   -0.03852514185608   -0.43777285590155
H           3.52233803125062   -0.84280223001468   -0.99292489913940
N           0.46627567956496   -2.19213406206302   -0.72461013556218
H           0.10480496791460   -1.62854023527643   -1.53655856320392
H           0.40841368105410   -3.19047539472441   -0.89042920688766
H           1.44905293104827   -1.87769775581575   -0.53881094352618
H          -0.13845049310628   -1.91263942621111    0.12535803369708
