    26
        -50.47133940  Gyration_radius:  2.37684100279 Dipole_moment: 2.961
 S          -0.07306948145300   -1.75061470544210   -0.17898921749249
O          -0.21887099328811   -0.91257611536345   -1.34824943710397
O          -1.01653470030747   -1.40898450451548    0.87909801522666
O           1.28618919694637   -1.81373636299862    0.32621557657450
O          -0.44154891234329   -3.21410945237440   -0.64644795492158
H          -0.21538181836253   -3.73360280716292    0.11754333211456
H           1.78949859718707   -0.29411932439057    0.82112818203937
O           2.02980640815964    0.64277926132272    0.99386919921726
H           2.95374645938827    0.70713370727115    0.73788860647947
O           0.57245693800717    1.63464968253414   -1.09138308161490
H           1.25273039089619    1.46964413754993   -0.40920103184828
H           0.32092668184681    0.73726765207557   -1.38585453236117
O          -2.73750619628047   -0.13996462836624   -0.63868829149202
H          -2.20219846278135   -0.31506929413426   -1.42296652722562
H          -2.31108477122925   -0.70379945851391    0.04016451427539
O          -0.41388010334369    0.75088984648660    2.34514405331220
H           0.53241880774761    0.85066031167424    2.16814803884111
H          -0.65123691164936   -0.12737684130892    1.98373386649891
O           2.77108901622929   -0.61831768488140   -1.64272187087490
H           2.15559979590415   -0.52083675645211   -2.37155701120336
H           2.32398863816594   -1.18741575086628   -0.99885046282294
N          -1.56527961245966    2.02637393215862    0.34941823538824
H          -1.19826094072050    1.65323613497002    1.27436248072355
H          -2.20791140984486    1.28646864429312   -0.04839101318814
H          -2.02227406319064    2.92533111540000    0.44495543549522
H          -0.71341254297800    2.05608925061830   -0.29836912401040
