    26
        -50.45964217  Gyration_radius:  2.59500192582 Dipole_moment: 0.597
 S          -1.81890703785317   -1.46915057789279    0.29993933431056
O          -1.76922309017055   -0.11569468850794    0.82862365240732
O          -0.50354197574669   -2.07567249411232    0.22401477302490
O          -2.57227947257646   -1.59510074339001   -0.92996234148997
O          -2.63460864464093   -2.30014038074549    1.39872343305584
H          -2.92470735281766   -3.07384724684003    0.92428274918985
H          -1.45045544319626   -0.67935576708949   -1.61861289281292
O          -0.79523534374269   -0.12813022796833   -2.10938681381617
H          -1.16290033991941   -0.00841314230889   -2.98865761149155
O           1.89090528616038   -0.60527233766756   -1.77822580283202
H           2.16216275648497   -1.44206831512376   -2.15853292019248
H           0.91772635335181   -0.57274822381038   -1.86235679191831
O           0.70979957229533    3.11394367993288    1.06594478546614
H          -0.07818090711943    3.65971796368752    1.08179892510486
H           0.79958318068563    2.80144826467870    0.13306104355362
O           1.86434254762917   -1.15538642260958    0.90109708148030
H           2.11698026037888   -0.84731571765477    0.01158308795074
H           1.04440835410541   -1.67054314513637    0.72934793183810
O           0.77151216279845    2.03704762261484   -1.35540206574788
H           0.02899971247065    1.42571496675129   -1.49165321934926
H           1.55774529447853    1.50806223573371   -1.52580221063931
N           0.37826676216901    0.65110604843156    2.07035114892743
H           1.11826159436030   -0.00852051834221    1.66993749455542
H          -0.53860979832810    0.34398190155766    1.61768118646887
H           0.32183774095456    0.56330713398920    3.07838848145406
H           0.56611782782750    1.64303012175338    1.78381755147399
