    26
        -50.46742650  Gyration_radius:  2.40235069253 Dipole_moment: 4.777
 S           0.70095568596823    0.94390963589213   -1.25717534213152
O          -0.74793065236689    0.32331305507822   -1.26831656003853
O           1.46459689796709    0.19902698897144   -0.25633828589554
O           0.59863114460793    2.34548326830669   -0.93129308543515
O           1.17277990465649    0.64787373390676   -2.60780553881801
H           0.65196993673927   -0.68099746376768   -2.77896331763732
H           0.17617201887383    2.59759397848589    0.60163469181737
O          -0.18029671802305    2.68765328748452    1.52454847227585
H          -0.33429435561709    3.62485350317240    1.65285950731689
O          -0.83220117730802   -1.40765482092243    1.99039019084395
H          -0.98835788144577   -1.92613745758728    2.78033712683678
O           0.58599695969255   -2.23948723406597   -0.26389437194554
H          -0.09639293738254   -2.15594349573517    0.42368106319982
H           1.08198031844950   -1.38747324334882   -0.19512876632393
O           1.06905791375157    0.35511930035144    2.36519050982527
H           1.41920066383390    0.29561911598063    1.45321326151215
H           0.68665919477630    1.24318234132619    2.40692684486658
H          -0.07200306867130   -0.79557104431669    2.20450042907490
O          -2.02799160283750    0.80161557904340    0.89850568316120
H          -1.28268150764218    0.56564590074632   -0.44696067595986
H          -1.77647826546126   -0.01464604288828    1.36755953814901
H          -1.48922286108602    1.52243392301997    1.27801701749584
N           0.16743037196196   -1.67634165125662   -2.77136991796351
H          -0.81436226497524   -1.53362960907358   -2.99038630467850
H           0.25952368017072   -2.02150160252272   -1.75219374490023
H           0.60725859146624   -2.31393996635613   -3.42753842461056
