    26
        -50.46742639  Gyration_radius:  2.4019446009 Dipole_moment: 4.772
 S          -0.99387308756968    0.79428670163440   -1.15765462492541
O          -1.50221377623654    0.07017890896506    0.00728845400255
O           0.47697901350848    0.28064330627231   -1.39720050139260
O          -0.95302483717495    2.21938150655441   -0.93744007200235
O          -1.67136181708826    0.36864564347892   -2.37990738175732
H          -1.07895013231306   -0.92873519669134   -2.56633500746717
H          -0.28606050040981    2.61417004615974    0.47338180136265
O           1.29467612131931   -1.19191255690408    1.87683586641248
H           1.63287114576021   -1.64035605054267    2.65260479436381
O           0.22053048590781    2.79759232307526    1.30809964935671
H           0.31071163374391    3.75068253605892    1.35281095158991
O          -0.43172846391450   -2.29005897590807   -0.01970071961885
H           0.35418639564595   -2.10449179624270    0.52201594337505
H          -0.97932443983799   -1.47454333714268    0.08963534598413
O           2.08258363149618    1.01559047873877    0.45886612810623
H           1.99112754249859    0.21929137575601    1.01301556120358
H           1.12868360097879    0.62485002559127   -0.70726797125767
H           1.56087835438927    1.72000403243379    0.88952352322125
O          -0.65350910342738    0.44590086844108    2.49549204305931
H          -1.15644802445154    0.29463129883479    1.66959889991486
H           0.53543202185124   -0.62388661870441    2.19224380227803
H          -0.34744915504635    1.36045390207582    2.41409819200167
N          -0.51826252257699   -1.88254924454732   -2.58956543736497
H           0.39308232885819   -1.68505298514405   -2.99306519808906
H          -1.01229988314285   -2.59676508308673   -3.11530320082704
H          -0.39723654271909   -2.15795109898978   -1.55207085156273
