    26
        -50.46742640  Gyration_radius:  2.40239670484 Dipole_moment: 4.775
 S          -0.64583712491862   -0.09318688009287   -1.59339360459495
O          -1.28085929030776   -0.66487385624778   -0.40609533141459
O           0.87016784289492    0.13262272810078   -1.22531816721868
O          -1.22382745994823    1.17617021531837   -1.96173376915617
O          -0.55771536380468   -1.07712503652065   -2.66970629879986
H           0.48796602660977   -1.92337339799542   -2.16182141838405
H          -1.38861148676766    2.17087088579256   -0.70650419983602
O          -1.37365916803005    2.77212974781635    0.08419862357722
H          -1.66203285252708    3.62835710367733   -0.23548657959187
O           0.74731844022318    0.07956401343191    2.46431452283278
H           0.87622476872137    0.05657065030395    3.41304186529336
O           0.48551380879868   -2.13675066143852    0.79028186909255
H           0.85222524243007   -1.47015116895562    1.39577018609403
H          -0.31430656450389   -1.68997906902767    0.41947663799936
O           1.18026149531421    1.97150591956794    0.53116798425036
H           1.00584205875227    0.90162017651853   -0.58546562708920
H           0.31039068376568    2.41400072111164    0.49325942415944
H           1.16716175009726    1.39158543724876    1.31411952921057
O          -1.73223358168280    0.66041550719344    1.85065907741053
H          -1.75747079475416    0.09039884260384    1.05548719576407
H          -0.22395224715633    0.26414762162794    2.31919837592907
H          -1.77728871335972    1.55791164178714    1.49135273516727
N           1.31483982385911   -2.45840721952110   -1.65677503997652
H           2.17015909671099   -1.94886183514621   -1.85946085460427
H           1.37640768187815   -3.42590978343287   -1.95788506350033
H           1.09331593769786   -2.37925229370212   -0.60268205259579
