    26
        -50.45538171  Gyration_radius:  2.5658269842 Dipole_moment: 4.091
 S           0.49399981534385    0.46782828731309    0.79893711584308
O           1.61456449190319   -0.42973159318447    0.93806686505223
O           0.76073939836602    1.61710456235189   -0.06275169626046
O          -0.69947733025742   -0.25130676218366    0.28835370750167
O           0.10224544869715    1.03533749127495    2.18079233780069
O           0.21754292177343   -0.35093114245961   -3.37759786938855
H           0.42396999292971    0.22798132610392   -4.11420404217666
O          -1.03299533303460    2.85400920481767   -1.45660971160660
H          -1.56686647694549    3.39095487954696   -0.86818203990291
H          -0.27266376197849    2.51975675748380   -0.91298768704880
O          -1.66585765188196    0.42527262409403   -1.86768277795743
H          -1.53579702008660    1.43905900005410   -1.81324399683631
H          -0.96624380041378    0.07227897226176   -2.54364934562919
H          -1.29760512959809    0.08502023065488   -0.91295632066150
O           2.15881595956232    0.05079019031879   -1.67664656674756
H           2.28278346287646   -0.55691268295045   -0.93516277330041
H           1.00114323065935   -0.30482417700058   -2.76223860315030
H           1.82095802153992    0.84950531047049   -1.23309675053640
O           0.90909899696341   -1.00405657054948    3.46810400032305
H           0.18009451561081   -1.62456182570620    3.21873879840201
H           1.55124183720698   -1.07899333997675    2.74600218782392
H           0.37122653094838    0.31637683847254    2.83979989655790
N          -1.03918986355572   -2.37456200702314    2.21947549614609
H          -0.99651615069769   -1.68875630991247    1.46615498368457
H          -1.99481564526334   -2.40755017696553    2.55145211998408
H          -0.82039644068624   -3.27908907735086    1.82113266206516
