    26
        -50.44962123  Gyration_radius:  2.52290526237 Dipole_moment: 3.585
 S           0.77800663059934   -0.61576516951862   -0.92607637427124
O           1.13068093551661   -0.16424669972874    0.41026904320019
O           0.91412428702982    0.43012096111155   -1.92116710904309
O          -0.57293477395795   -1.19191314395906   -0.92803612833730
O           1.76951987132693   -1.77534648161755   -1.26955131088997
H           1.49623985642139   -2.03075165469317   -2.18204866748267
H          -1.49670754461738   -0.43351238983545   -0.02057970265666
O          -2.13132416464887    0.09379019080701    0.57522349810718
H          -2.91548457786493   -0.45207426128666    0.65948577774824
O           0.41444807866652    2.58275182678738    1.88999450294931
H           0.04622257493680    3.44607693023272    2.08975015328896
O           0.85200009330560   -1.24337088773150    2.67353755026205
H           1.66645643478662   -1.04828957594331    3.14207406449652
H           1.02334639684840   -0.97917571237023    1.71864417876980
O          -0.45329412548068    2.21572055170338   -0.53473488291341
H           0.12808212239601    1.66390802373859   -1.10200402344200
H          -1.24292484408770    1.68483149960707   -0.38236937785185
H           0.25346983141762    2.43353463414248    0.91267946692731
O          -0.86536229721198    0.58961581375469    2.72843140739164
H          -1.41462590916797    0.36803924150219    1.88609989949876
H          -0.17472720925411   -0.19362825092717    2.81118073588961
H          -0.30268533797971    1.42947377036760    2.44849286746242
N           0.48100480123867   -1.83780047072391   -3.55713297718886
H          -0.39299626115600   -2.01400449350984   -3.07456446202556
H           0.38496457259721   -2.12569430383220   -4.52325471777795
H           0.62450054833936   -0.83228992803375   -3.52434342211712
