    26
        -50.44962139  Gyration_radius:  2.52268640929 Dipole_moment: 3.574
 S          -0.20376143296690   -1.33320115385244    0.13273017535454
O          -1.61739705982154   -1.37397016280999    0.45311941635704
O           0.53803613316417   -0.42765390437308    0.99520491366343
O           0.02161741408228   -0.99138322294060   -1.27771092944485
O           0.41022049876669   -2.75315591179418    0.36228518012262
H          -0.13461547345049   -3.32305943629912   -0.23011643871208
H           0.10335265131246    0.49421967164993   -1.47544299652426
O           0.13432189782999    1.50167344913141   -1.61597653999338
H           0.46900382987772    1.62522244783721   -2.50631295348502
O          -0.23350401275180    2.49872690101801    2.02820133302387
H          -0.68989573903302    3.33274600517968    2.15848584924165
O           2.90775754398318    0.43093494892056    0.88259764554824
H           3.22105995695513    0.41277577755105    1.78947109122551
H           2.03925334555238   -0.07552571311053    0.88980194422550
O           1.55758086304214    2.45854710407158    0.26654518798985
H           0.86023532370051    2.50749671914362    1.04882667441252
H           2.20916900254288    1.67948340308908    0.52204653304832
H           1.01268773282026    2.09515703139999   -0.52804814327699
O          -1.90157553176647    1.25282942288761    0.46847553016907
H          -1.52636231775501    1.42935858486459   -0.40135601148853
H          -1.90022727918318    0.27526966428571    0.56120328042381
H          -0.88411762822633    1.89842217773497    1.55955702686232
N          -1.40218958874396   -3.52295574516838   -1.37565456064027
H          -2.01877507213691   -2.96412495442634   -0.79230514254607
H          -1.94794066737742   -4.23653883116727   -1.84302348739944
H          -1.02393440038768   -2.89129428287050   -2.07260457816200
