    26
        -50.44962117  Gyration_radius:  2.52298367807 Dipole_moment: 3.587
 S           0.81566006770279   -0.76692084466631   -0.76788886282973
O          -0.24892694668078   -1.18207973190538    0.13116804646993
O           2.08463856716782   -0.59670144011097   -0.08713665126999
O           0.42367087627785    0.44851273616817   -1.49318500949647
O           0.95798221405612   -1.90640910045182   -1.82954538026091
H           1.69522715919895   -1.58158147297527   -2.39831524281764
H          -0.35567257233716    1.38542528664387   -0.61760434486199
O          -0.94154257895790   -0.15191828047228    3.08288585812976
H          -0.93336566235790    0.34075218434854    3.90631754183979
O          -0.86333610642976    2.03345679952566   -0.01909856884179
H          -1.23331172263098    2.69128774698655   -0.61099213536332
O          -2.74447486294742   -1.36084010110769   -0.19306113209169
H          -2.99344883701700   -2.17426059620833    0.25111604319491
H          -1.73968814787163   -1.37236953102033   -0.22807937284181
O           1.08699914406210    0.90500588343361    1.84406179801781
H           0.65606888397839    1.56296662015518    1.28731194099818
H          -0.09321947218097    0.08972246159369    2.60828818571310
H           1.55196808353678    0.30155278354549    1.22444536307594
O          -2.53312713044185    0.64244885548448    1.30818478793676
H          -1.89706065205578    1.23447821537958    0.75573145819790
H          -2.73033298121515   -0.18354154814552    0.69467093376395
H          -1.92771428957333    0.27658904779550    2.08267167814003
N           2.87866712158383   -0.39814115829644   -2.79572561199515
H           2.22837461099935    0.36866168733906   -2.92590179233588
H           3.68625047643036   -0.24608324483580   -3.38749217535979
H           3.16971477772810   -0.36001323824646   -1.82282739510038
