    26
        -50.44962128  Gyration_radius:  2.52275413695 Dipole_moment: 3.578
 S          -0.39834553900062   -1.26433960174563   -0.28574534143886
O           0.57356691948608   -0.80979242109065    0.69557010074145
O           0.18449116178090   -1.45384176663442   -1.59997637853463
O          -1.54441676620936   -0.34688345304913   -0.32933492494175
O          -0.93268112838727   -2.63863235845606    0.23571200251422
H          -1.57070837033912   -2.90400487044973   -0.46783880959739
H          -1.11175646244379    1.08064066940051   -0.16327179141321
O          -0.81854493777971    2.05126757155711   -0.07562360049931
H          -1.62427214041337    2.54893527285815    0.07629490270782
O           2.88643501173302    1.38222259133016    0.41114092151201
H           3.45539759277318    2.07351835398847    0.06583197340974
O           0.30218001059967    0.04393448276886    3.05408057609802
H           1.02114475566696   -0.35764800578206    3.54677115675249
H           0.29103895337698   -0.42728794782036    2.16594244832336
O           1.36679474111331    0.90828691726702   -1.64641316962326
H           0.59225486123393    1.44574376713970   -1.44699638700181
H           2.36848446526455    1.03422605482419   -0.37235029713622
H           1.03654980152782   -0.01429046317463   -1.71028060477700
O           0.91795584174114    2.12343392530513    1.78560685310132
H           0.66779188816526    1.31762543772998    2.40631762895854
H           1.78301767103393    1.82370933238923    1.27346771111298
H           0.18955019444597    2.13030146663031    1.05770096463073
N          -2.37583724979073   -2.60489621157773   -1.95848370005571
H          -2.80680135214299   -1.73079658369788   -1.67912468457714
H          -2.96429518395791   -3.05327979480514   -2.64995388207748
H          -1.48899471957968   -2.35815237500529   -2.38904365817644
