    26
        -50.45538180  Gyration_radius:  2.56580819981 Dipole_moment: 4.087
 S          -0.76191958401017    0.14701155363314    0.70621920514468
O          -0.21209843078439   -0.63674540472182   -0.42771823127801
O          -1.25752072207581    1.42449212511545    0.25583789201248
O          -1.92153250573641   -0.68853754623367    1.29130718110480
O           0.25217289807324    0.24233082890694    1.75359236908703
O           3.16280891835010    1.04294070543353   -0.70499201244362
H           3.95359542387996    1.22368200642802   -0.19272245687230
O           2.13445224730936   -1.49042596550708    2.13330416022719
H           1.75710791222658   -2.27428647071935    2.53674277633234
H           1.41921602009751   -0.80211102168761    2.14353219862513
O           2.16307717884797   -1.26731982663484   -0.39996537366267
H           2.63327290175227   -0.36499937304554   -0.58883015424577
H           2.28666088174100   -1.45959665702291    0.59771438444793
H           1.11314031144483   -1.03144639191999   -0.46996872476202
O           1.27600653403986    2.35800521439040    0.53375618943348
H           2.44757460156919    1.62376315859393   -0.32311777156701
H           0.42017821028676    2.49263753754407    0.10497528899065
H           1.05838697421404    1.71040260500543    1.22811979061531
O          -3.69921315264386    0.38532849632332   -0.17625288585047
H          -3.12192351236735    1.16255864505595   -0.13066380362968
H          -3.45961851279216   -0.05340797995501   -1.02990146487652
H          -2.74412317096543   -0.36921080613960    0.79627011338868
N          -2.43930233541747   -0.74587549502146   -2.26597979892583
H          -2.26810753370932   -0.18771198629055   -3.09297031889648
H          -2.60868962224490   -1.69740765484780   -2.56673691104467
H          -1.58360193102609   -0.74407029665932   -1.71155162136547
