    26
        -50.45352412  Gyration_radius:  2.57477757196 Dipole_moment: 4.238
 S           0.43078069064343   -1.05386480217402    0.83121547773666
O           1.86525424048712   -0.73631304791042    1.18338571380093
O           0.23279068726284   -1.02759137204909   -0.59748996329355
O          -0.47970862009512   -0.15518230353995    1.52053326317171
O           0.24373944427382   -2.46840821513870    1.37266455104547
H          -0.75239849019909   -2.54244925228379    1.62128638063124
H          -0.40876875798829    1.39964853067776    1.02110196456361
O           2.71153292796012    1.73878655273671   -1.96091548052445
H           2.91530084357695    2.55464748074696   -2.42028502852636
O          -0.22213798920152    2.30784484801679    0.68391744088574
H          -0.61423786833102    2.91716317138860    1.31200461229695
O          -2.22693634898734   -2.26624612396152    1.79574972210334
H          -2.11094927363767   -1.34488454979619    2.05801213097787
H          -2.49647940586091   -2.23878281842869    0.83363346108944
O           2.40514415383312    1.62644341283057    0.65576650929190
H           1.52204154452799    2.04724856165453    0.68511566659413
H           2.15302562245596    0.27589696020489    0.97212109637395
H           2.67835238382401    1.64272010150217   -0.29779140209035
O           0.08355736418750    1.31326309850554   -1.94650554202365
H           0.10667032961409    0.40057650351820   -1.60765902323079
H          -0.18777315959326    1.85526512017360   -1.19379313553540
H           1.75615325387683    1.55185930495405   -2.12506620463998
N          -2.46840310867568   -1.99343236274790   -0.83462099219071
H          -2.56010876950345   -2.84055525879311   -1.38131421172584
H          -1.50612499916404   -1.66941059641325   -0.92943371647120
H          -3.07031668528508   -1.29424293366838   -1.25163329031522
