    26
        -50.45352424  Gyration_radius:  2.57418666089 Dipole_moment: 4.238
 S           1.14611734670170   -0.77988349875109    0.25947764760064
O           2.25025564429726   -0.17884786690233   -0.57871284441140
O          -0.00830971341862   -1.08399523569201   -0.55026160964544
O           0.81243490590656    0.09237773314069    1.37280930182835
O           1.77564352404935   -2.06128155332087    0.79874782697849
H           1.32480983620566   -2.23291076695939    1.70807986949225
H           0.10303228820965    1.50266702298715    0.94924257336770
O          -0.08950811425077    1.68861832412289   -3.36871167984686
H          -0.49634335530988    2.41359056226133   -3.84525571259631
O          -0.25039239843803    2.33876181841303    0.56274963468053
H          -0.21330207805858    2.99737259777462    1.25866979677029
O           0.41870587387839   -2.15580228378065    2.91393653465526
H           0.44360491385921   -1.19335057383361    2.97886592619706
H          -0.45078096127664   -2.37129393850407    2.47043130071077
O           1.61402313011044    2.07652058454780   -1.39308894634485
H           2.02516939544571    0.79855034225123   -0.95943365188812
H           1.10504298479841    1.93578972567623   -2.23280882827191
H           0.95300190115412    2.35420975800639   -0.72700158346682
O          -1.67571620359110    0.87346319278888   -1.39196517627647
H          -1.45283703937414    1.51242026045243   -0.70202083647792
H          -0.77882774950408    1.32562236117427   -2.76237187859765
H          -1.18176604101431    0.06651970296723   -1.16133484111950
N          -1.68675883113990   -2.47731508268719    1.32786352822984
H          -1.91964672204412   -3.42377533461406    1.05413036665671
H          -1.21169803209216   -2.03778569466844    0.53974201466412
H          -2.55595451462555   -1.98024215690293    1.47822125561035
