    26
        -50.45538171  Gyration_radius:  2.56584767571 Dipole_moment: 4.092
 S           0.98206122030691   -0.36895669761513    0.02758675798320
O           1.18599074780216   -0.59469817632147   -1.38239274887880
O           2.31510185795007    0.04075497082771    0.69112653593218
O           0.03987132011601    0.75531113876554    0.25242373844060
O           0.50089246823610   -1.54373700825281    0.75066051048045
O          -3.20469219193594   -1.08818638052769   -0.35270533756382
H          -3.71384758522733   -1.83431387009894   -0.02953443992943
O          -0.97395372858991   -1.45840117708528    2.87381474747613
H          -0.43016608409384   -1.19503554078406    3.61846911698395
H          -0.34968896813660   -1.62473728752427    2.12014276477784
O          -1.02883801748323   -2.16131849909485   -1.32092408484523
H          -2.42008806847000   -1.47589310467185   -0.83116901565465
H          -0.43947177364603   -1.63546896149146   -1.87825288624074
H          -0.51248107926254   -2.24641662508675   -0.49936780757806
O           3.25961164606060    1.11624494629797   -1.41094712488805
H           2.72249796190778    0.45204752751017   -1.86896625921797
H           2.70143287033405    1.93297952264782   -1.41353148512231
H           2.83736275789994    0.50044136209184   -0.04339777774754
O          -2.07457906715773    0.32042569225434    1.42728549718439
H          -2.61746279302912   -0.20275572842712    0.71841269457478
H          -1.75881520087963   -0.36452835884602    2.11925435851998
H          -1.16247267436911    0.58063907266572    0.91428349405678
N           1.28582116086172    2.92955613764985   -1.18739926793238
H           0.74479880373538    2.23207805884262   -0.67706717497949
H           0.75793275850839    3.18014010700536   -2.01403802615496
H           1.35318164859343    3.75382889926366   -0.60376676970015
