    26
        -50.45546758  Gyration_radius:  2.49814897862 Dipole_moment: 5.326
 S           0.23739216206469   -2.05438077904022    0.69541571145647
O          -0.26143270322138   -1.48688954797293   -0.57052441668183
O          -0.78141868157595   -2.16789832782281    1.70526155735096
O           1.45538175684213   -1.38832934961679    1.09051380134034
O           0.63493428999999   -3.55781686198813    0.32751908927966
H          -0.01715950437225   -4.03909660756580    0.82564804877244
H           2.40167290199354   -0.08073837778233    0.60751722677254
O           0.40466465653424    2.09920242705464    0.70767971820551
H           0.38155084035641    2.90440984730580    1.22616466174710
O          -3.24564405367390    1.12310875152085    0.10269250179102
H          -3.65259033858693    1.99033274337175    0.10941084055060
O           2.63993792698989    0.72345687327210    0.09294127839293
H           1.96314682853372    1.37456886350582    0.37013628055461
H           2.09160666585356    0.22864865287224   -1.20236468997988
O          -0.96769096630991    1.01208493928651   -1.43986824612894
H          -0.49792179351701    1.53544974442742   -0.76805215267390
H          -0.92651959363635    0.09382982952596   -1.11708175445418
H          -2.59774413007707    1.11886027450107   -0.62714216965409
O          -1.21469027560887    0.45160613178890    1.87593431385030
H          -2.05111680280757    0.57349470061697    1.39021064316771
H          -1.05927313654142   -0.51068321947578    1.90806768243496
H          -0.13713278337217    1.43107527126482    1.22252985645319
N           1.47961673265611   -0.23072724603472   -1.99028267137416
H           0.83598410184576   -0.90463329486942   -1.45015176167385
H           2.03074925509789   -0.70823753362190   -2.69397740722613
H           0.85369663434789    0.46930208644040   -2.39819795186819
