    26
        -50.47117019  Gyration_radius:  2.4585544112 Dipole_moment: 2.474
 S          -1.55506386727418    0.19795359325912   -1.63249381543920
O          -0.12411997094423    0.22876771417378   -1.88729426973139
O          -2.15989943846148    1.48254057962533   -1.42688661707395
O          -1.85738942412906   -0.75013132152250   -0.54985278587949
O          -2.23572214503078   -0.41279153278608   -2.93432937630889
H          -2.83457350498402    0.28233849330422   -3.18797832892085
H          -1.71121263113428    0.43148657636631    0.63718625093366
O          -1.49579006386508    1.13205260251601    1.28747835552791
H          -2.16614248484231    1.80515812638434    1.14827091854200
O           2.48219440944628    0.65158630224029    0.92037440757226
H           3.26469067964430    1.16781366543655    1.11495537450153
O           1.95780570309199   -1.23621550554884   -1.02293234068639
H           1.30671065990720   -0.71768657597517   -1.53592943724991
H           2.36084430638869   -0.59834059771531   -0.40627757260448
O           0.51414387475730   -0.40232304842095    2.50670552822438
H          -0.21108169040586    0.21630867937960    2.33311436575046
H           0.23894801621272   -1.58127796459547    1.45120580302065
H           1.30889492904763   -0.00068718707561    2.10657353180911
O           0.63868423166837    2.11747508875107   -0.16927875430710
H          -0.12162387010325    2.01204088052148    0.42754849376935
H           1.82904586387836    1.27887953851368    0.49092332886611
H           0.39586656981360    1.59541045317729   -0.95681780695730
N           0.08025176282070   -2.13323967592473    0.55758075911583
H          -0.75468517791512   -1.69960379904403    0.07911631589621
H          -0.06532758185250   -3.11983870528012    0.73511620975976
H           0.91455083425948   -1.94767634976077   -0.08607854813013
