    26
        -50.47117025  Gyration_radius:  2.45849476351 Dipole_moment: 2.470
 S          -0.07305768795756   -2.23762531213986   -0.33058255516249
O          -0.65067043019286   -2.77986068454996    0.86539726377789
O           1.16447807714336   -1.50078923962921   -0.13259798909981
O          -1.02666206385237   -1.42914096124988   -1.10466130470762
O           0.28111997405021   -3.48040139138570   -1.25862072639813
H           0.01278833145526   -4.21479525184691   -0.71559741861272
H          -1.69767171249653   -0.74853203858941    0.27865925600989
O          -1.96392242469696   -0.30055724752562    1.10838252164657
H          -2.36586210974513   -0.99307070655305    1.63819989556819
O           1.24563644821625    2.12545995693343    1.16738568727878
H           1.70489980600914    2.65417240832521    1.82018748097049
O           2.13115088064100    0.81564990809144   -1.09433411556516
H           2.02719024648655    1.37583280659192   -0.30382175836931
H           1.99044780588753   -0.09891450559884   -0.77843191482221
O          -1.28762578816143    2.24362948792867    0.13339422741216
H          -0.42484290619553    2.37566022249936    0.57064582547976
H          -0.80074182054992    1.57421271062129   -1.24313325786347
H          -1.70838683606362    1.50360514630756    0.59611950171596
O           0.60664165853939   -0.20037648675582    2.12506755645641
H           0.94487356854313   -0.80710545164572    1.44001332650136
H           1.04906112420417    1.24487533758567    1.60386021285135
H          -0.35885707842496   -0.23649174711153    2.01643505849708
N          -0.32914785442688    0.95209269882586   -1.96348771694737
H           0.72347596376863    0.98360013593557   -1.77390890369151
H          -0.56400275121205    1.21592967185310   -2.91287997344324
H          -0.63031242097395   -0.03705947692167   -1.75169017950474
