    26
        -50.47117018  Gyration_radius:  2.45854775823 Dipole_moment: 2.479
 S           1.32271031535586   -1.77426617735905   -0.47358976236173
O           0.81885450846375   -2.30620227201456   -1.70708199976241
O           0.36827138453598   -1.76142968628214    0.62293465439443
O           1.92722550829877   -0.44358669425034   -0.63565452661551
O           2.51364775374088   -2.73066740020276   -0.02847233336678
H           2.51536024105952   -3.37997469104043   -0.72472770983298
H           0.74319192150037    0.05186171403410   -1.72174389754173
O          -0.03525521976126    0.32186295668478   -2.25196628778059
H           0.00311597613449   -0.23106606857588   -3.03594356098256
O          -2.37912137232686    0.91860954963122    0.96342006199338
H          -3.31889894657157    0.97983046063855    1.13576899578952
O          -0.27535009427236    0.03536302986283    2.51585960434677
H          -0.05858161168733   -0.76498358815586    1.99775745101762
H          -1.13338912130386    0.33844174870914    2.16743654576021
O          -1.84900392056059   -1.03305701269333   -0.66295819067231
H          -2.25489656460279    0.13874917561119    0.34618916961085
H          -1.38907970317114   -0.59860566683860   -1.40123567707600
H          -1.14106794297892   -1.51031993044585   -0.19092914962727
O          -0.66510224852347    2.44658685469912   -0.52876086174775
H          -0.54407545016724    1.87971137783472   -1.30516470774570
H          -1.39675932586469    2.04859952162598   -0.01946773991413
H           0.57562349495040    2.04119657522897    0.40727502209143
N           1.27021043661200    1.50070386078720    1.00204658709114
H           0.71510482708030    1.00054373032556    1.76791277451569
H           2.00270281550277    2.09373958921766    1.37335737131647
H           1.66456234855517    0.73835903297329    0.38773816710156
