    26
        -50.47266059  Gyration_radius:  2.39585920031 Dipole_moment: 4.379
 S          -0.97218586628015    1.35098900376160    0.60563609971029
O          -0.29401416742200    2.59731761351610    0.84086393419289
O          -0.45103676688099    0.26220215930968    1.43374975140824
O          -1.06969810046028    0.95443939054614   -0.78447359330111
O          -2.47501578103075    1.57323001550363    1.09339067200244
H          -2.36858013127634    2.35524577389601    1.62310012696710
H          -2.39263646951356   -0.09082671395419   -0.88768664874249
O          -3.06599758892510   -0.78167501851242   -0.72860931157278
H          -3.67361939157323   -0.40088942805484   -0.09165679322866
O           2.04728174404400    1.85673109463463   -0.28326168976515
H           1.25119914658275    2.27918382364362    0.08655412572645
O          -1.01288019748794   -2.11274705869576    0.38629565316968
H          -0.86962200107114   -1.30543542969624    0.92275572097487
H          -1.82105451574557   -1.90519322008175   -0.12447417542235
O           2.07068802665927   -0.38568698425997    1.46070936672460
H           1.12224494997062   -0.10321252059313    1.50824380528151
H           2.32782678374824   -0.60478625590040    2.35742926072256
H           2.34676059035021    1.22608793007846    0.38344119390509
O           1.07042529813033    0.35775732618560   -2.25075288305628
H           1.22456334871325   -0.94604768344206   -1.48148679478684
H           0.16175820685359    0.59911291611061   -1.99242030160397
H           1.61352227666455    0.98963251665601   -1.72666187515082
N           1.30720885577347   -1.76892222289586   -0.77831045703054
H           1.82934097982262   -1.41049858826388    0.04036434430710
H           1.76644178867854   -2.57181020828049   -1.19260067834540
H           0.32707900162864   -2.01419825109052   -0.42013887303804
