    26
        -50.45300970  Gyration_radius:  2.43480678775 Dipole_moment: 5.196
 S           1.18972605158847    1.70361410337755    0.26453496994617
O           0.67516006719320    1.67311746731659   -1.09641701503246
O           2.18342775110188    0.54067925945336    0.41677225641440
O           1.78780029458748    2.91917809558228    0.67077644074141
O           0.02138971043747    1.34255509844972    1.20969967162842
O          -0.19963072982122   -1.92639492236535   -1.28456143599642
H          -0.52958624700486   -2.55956268178007   -1.92312474485167
O          -1.86652384865528    1.83509802798254   -1.91453758380559
H          -0.89790737506149    1.86250798300739   -1.78924495307284
H          -2.17903014732827    2.73307796955944   -1.79516069686600
O          -1.70827618962074   -0.04520122017899   -0.02804116972836
H          -1.23899671439034   -0.76448853575064   -0.49674575543655
H          -0.67447449724011    0.77050734029201    0.71932317633905
H          -1.97800640603577    0.58738999512269   -0.72885543564315
O           1.72740201448058   -0.44656980969940   -2.26578880670989
H           0.51634060716674   -1.40824272398289   -1.74292426596400
H           1.36215216989212    0.41806896049124   -1.98268400278037
H           2.53666728591113   -0.55592036762296   -1.75944027857214
O           1.08265836606310   -1.59712514811411    1.11838221294547
H           0.62300106056556   -1.92150292585680    0.32633370214132
H           1.73723976393620   -0.34545027988104    0.73703324740260
H           0.37272362825099   -1.40418893212026    1.79158215460298
N          -0.92892354511088   -0.97426442474635    2.76649587386814
H          -0.68092343653464   -0.03872489940908    3.06519228220336
H          -1.20981199223084   -1.50884481625568    3.57822926944563
H          -1.72359763214069   -0.88931264287281    2.14317089677857
