    26
        -50.47416416  Gyration_radius:  2.42044717973 Dipole_moment: 2.163
 S          -1.43783617865568    1.35947764556323   -0.29202278825082
O          -1.27767045007059    1.01441035395047    1.10986926215167
O          -1.72637707790819    0.20184101202934   -1.11906334186841
O          -0.33269666793477    2.14221804419825   -0.82210532342718
O          -2.70407954702680    2.30728892103950   -0.35026759242639
H          -2.59155545435107    2.73308065537790   -1.19294165376318
H           0.38533046088213    1.19045277016896   -1.96994080901366
O           0.58099522103410    0.43838790728003   -2.57286300097895
H          -0.29172080537686    0.05565185081532   -2.72179295800787
O          -0.58205656802185   -1.28139494981960    2.15892851860576
H          -0.98185924425231   -1.35294837887179    3.02682369827955
O           2.01312921661616   -0.60805750739234    1.43554343637389
H           1.89417817429756    0.36932023527110    1.47253984017080
H           1.22348216000090   -0.96636623632268    1.87518119412761
O           1.21269473932443    1.93557073689836    1.42294167495897
H           0.27326034459001    1.69432479947305    1.51571832263552
H          -0.88765653047244   -0.41918520649669    1.78803914986073
H           1.24311615590868    2.36888756519956    0.56337749177914
O          -0.96471025159943   -2.24149289617829   -0.38886684606348
H          -1.38662015101358   -1.41173173305888   -0.70006497225572
H           0.53944280402183   -1.94681683994188   -0.79277121225212
H          -0.94654011574513   -2.16266324729805    0.57903561977020
N           1.48357398915162   -1.48490524589769   -0.97673602084708
H           1.82017722718933   -1.10464527751049   -0.03514546591079
H           1.29026765049067   -0.69109968689168   -1.64673437570990
H           2.15173089886724   -2.13960529151818   -1.36668183793403
