    26
        -50.47416411  Gyration_radius:  2.42043597053 Dipole_moment: 2.163
 S           1.70149681760959    0.88229731473878   -0.57183984978710
O           0.74097212957411    1.82787150620474   -0.03026862843674
O           1.17083242723682    0.13612546396845   -1.69831254694462
O           2.27744742442824    0.00601400731815    0.43583957388238
O           2.90013020795602    1.76292107375961   -1.11300063831590
H           3.60159183705061    1.12384859319259   -1.17304303241888
H           1.76960903941271   -1.52109739674837    0.04992712443176
O          -1.87280744356166    1.76262573388882   -0.16624727738572
H          -2.20116554747984    2.66262137455933   -0.14674075593019
O           1.34207604187546   -2.27543345080816   -0.41443096870135
H           1.33847875868622   -1.98195124648453   -1.33321504569904
O          -1.73939935483608   -0.13688889898725    1.85484359336369
H          -0.89265045173533    0.17419318504014    2.25102367893786
H          -2.00724817991950    0.58173616551859    1.25728423356547
O          -1.44628310751046   -0.25195449644706   -1.98769512677046
H          -0.48193764513694   -0.07751578471441   -2.04165613449082
H          -1.45624220885563   -1.36157505022344   -0.85613261133256
H          -1.81352664477818    0.52295904163078   -1.53154972985813
O           0.65630904193721    0.86456592360254    2.46239129741331
H           1.39557605276321    0.26018560227059    2.33693094400752
H           0.68513107980381    1.41831974394091    1.66122227732714
H          -0.88840643963131    1.83075996671178   -0.13954786360999
N          -1.25885796424618   -1.94241495267522    0.01703332203722
H          -0.23283890324024   -2.19051429813560   -0.02770384647342
H          -1.83618697903516   -2.77462705104334    0.05216366714408
H          -1.45209999836134   -1.30307204006230    0.85272433406702
