    26
        -50.47416216  Gyration_radius:  2.42038373803 Dipole_moment: 2.192
 S           0.82600149404300    1.12273921992048   -1.43395001988863
O           0.05018436831373    0.01836970555633   -1.97078344110135
O           1.87910640847806    0.67862116942189   -0.53865162449420
O           0.00673451031344    2.16283042705522   -0.83267861545797
O           1.52560838168770    1.79242299266890   -2.68596464853011
H           1.78571864963729    2.63803214032911   -2.33767386082895
H           0.38955385967458    2.16627754278226    0.77712462665712
O          -0.31387748575232   -2.37052578417842   -0.96272506519012
H          -0.45771336725032   -2.98640876112623   -1.68254482777672
O           0.81319750451495    1.95096936927511    1.63831079976393
H           1.69248215268740    1.65693906152859    1.37235128049735
O          -2.14062029298009   -1.16167323353430    0.74332583032936
H          -2.38741549325534   -0.42048070491783    0.14294350294290
H          -1.65432143794872   -1.78336266586571    0.17560626550793
O          -2.34469004467994    0.78802301057476   -1.06453613686892
H          -2.04191419592932    1.65270640739987   -0.76783407344263
H          -1.59027949932945    0.45577171125229   -1.58397832237088
H          -0.15595194692136   -1.49160671114464   -1.38318349494759
O           1.68639753282521   -1.62934264613875    0.77269706238969
H           0.64949794696708   -1.01581201917124    1.80294009230769
H           1.11863046341764   -2.14883185676466    0.18017788919656
H           1.91147183387369   -0.82249003775548    0.26112131146657
N          -0.12928475672726   -0.45258729265450    2.26640418614616
H          -1.02700272951727   -0.68710699517803    1.73386613472948
H           0.12751912306477    0.56282913621792    2.12686174721282
H          -0.21903298921149   -0.67630319554946    3.25077340175104
