    26
        -50.45488103  Gyration_radius:  2.47419920521 Dipole_moment: 0.413
 S          -1.35404568963324    0.00141646988742   -0.30588594247540
O          -0.53938121870698   -0.68603698628207   -1.28670982592238
O          -2.28159024825358    0.98725720830285   -1.00244999359825
O          -2.31949719132174   -0.97186610270119    0.34276720533990
O          -0.57312432375782    0.67250783000477    0.70460043042763
O           1.12312065540909   -2.28228098574268    0.01750322398605
H           0.59266518946977   -1.66890383565878   -0.53357180780067
H           1.29403799899182   -3.05348583791679   -0.52685043471799
O           1.18393587423388    1.10724497308377   -2.38062790568671
H           1.78016053325889    1.11259831985243   -1.59274495238448
H           0.62463873045393    0.32806216976006   -2.23258674370390
O          -0.36544260316363   -0.21015793502373    3.22126400965644
H          -1.06476639082823    0.19795418560741    3.73462096581149
H          -0.36034584638530    0.24159024233456    2.35457001067884
O          -0.76089828735623    2.74122419635384   -1.96255178742413
H          -1.08123732772478    3.03049962488384   -2.82041984194137
H          -1.69921649516479    1.75965210875662   -1.37116205733026
H           0.07524172420342    2.20008078404206   -2.14033915153935
O          -0.88234464495833   -2.38914417225849    1.79019130481142
H          -1.77060448891819   -1.64035513018922    0.97148325809920
H          -0.06754465753035   -2.48093956919823    1.24560540598151
H          -0.65362472790037   -1.73960796399136    2.49526656372427
N           2.28629906097387    0.76243909109292    0.05116091905170
H           2.52864223838059   -0.21380229383946    0.17673781675295
H           1.35550789829523    0.88085702242933    0.44435380995741
H           2.92941422792992    1.31319656640742    0.60577553024550
