    26
        -50.43916267  Gyration_radius:  2.49162719903 Dipole_moment: 2.422
 S           0.57492387916087   -1.84210429848073   -0.21304226182890
O           1.23555239982492   -1.04510741051042   -1.19839823689544
O          -0.57020161865934   -1.29376955242332    0.44242859175392
O           1.58427479753911   -2.29699937692954    0.84439099991545
O           0.15467244917771   -3.19221662145337   -0.88777954699204
H           0.69648490220151   -3.32337009696115   -1.66319738495895
H           1.36863644019720   -1.80941376865299    1.72702534702481
O          -1.20967524914519    2.18743774314886   -1.41463819747214
H          -1.31895773656688    3.06514463817502   -1.78196941142484
O           0.88650065293740    1.51139444238827    1.87103679994919
H           0.96430993483168    2.25660106407681    2.46922759484237
O           0.84701028683479   -0.96208833085270    2.84563929759975
H           0.98965875496576   -0.02905483025894    2.54912631196585
H          -0.10202830214435   -1.10978127788966    2.77835043509746
O           1.36036158941303    1.68183315332274   -0.90062309932239
H           1.39966961366871    1.69659893046405    0.06782284669029
H           1.43947166256988    0.74788594673560   -1.14708689812919
H          -0.23672436572903    2.03580839315204   -1.33682998152138
O          -1.55419813678333    1.19396202356296    1.06573968001816
H          -1.45603155342864    0.25475153434842    0.85107868795129
H          -0.08119196295070    1.46491243697754    1.59552606707993
H          -1.60556561647288    1.63789486988312    0.19421608371564
N          -1.46885465409081   -0.82599125193601   -2.41997056403036
H          -1.75015579805708    0.13843926943730   -2.27315274975067
H          -0.45924440327061   -0.81559083056738   -2.49720535867584
H          -1.68869797601888   -1.32717677875697   -1.56771501261385
