    26
        -50.43974035  Gyration_radius:  2.43036818142 Dipole_moment: 3.723
 S          -1.11707121939944   -1.37894732885429   -0.33787642209514
O           0.18971162928174   -1.63346787342199    0.26252056313937
O          -1.14891670720024   -0.19652889928730   -1.16015217499700
O          -2.16048871412093   -1.40044141338228    0.67931847708871
O          -1.41485458095777   -2.61280210849215   -1.28883931381490
H          -1.72773052854765   -3.28717871617630   -0.69313238392878
H          -1.82278008598809   -0.26432755519276    1.68277389223286
O           1.16094355729903    2.46909053895740    0.46714681253453
H           1.29852516373116    3.23776921901499    1.02220567787823
O          -1.49332755949752    0.45628532568720    2.29969027657954
H          -1.79749676538744    0.21101330825260    3.17606037820845
O           2.58320841067639    0.26472876169833   -0.52171033591117
H           2.42029532597082    1.15077554306944   -0.85206925442575
H           2.20520110496874   -0.34064711276963   -1.18559790219831
O           1.00122158096933    0.22287211169896    1.69918414852126
H           0.86049815490683   -0.58114445302540    1.04276250553840
H           1.28595613125507    1.02531419677130    1.12176653741387
H           0.06407979091765    0.40265430577349    2.04364462349615
O          -1.40209765880744    2.17663152591827    0.02776538269997
H          -1.39002527221530    1.39135583884239   -0.55552107122657
H          -1.75847914856153    1.86271760505947    0.86670044178719
H           0.20146163171904    2.46634826285839    0.20332845768732
N           1.21237520449381   -1.25918676675048   -2.42384043591926
H           1.23817850373537   -1.44687832186781   -3.41874867922107
H           0.33774400984245   -0.78776365442728   -2.21638333829102
H           1.17386805110355   -2.14824233987511   -1.94099687320236
