    26
        -50.43916270  Gyration_radius:  2.49174172183 Dipole_moment: 2.423
 S           1.02906780603275   -1.53791281816285   -0.58907731013486
O           1.49369835071843   -0.38409367521129   -1.29309639008388
O          -0.23590814509698   -1.46236642849660    0.07101535643872
O           2.09043151074492   -1.99059879682184    0.41713726959914
O           0.98456513021551   -2.73367231805469   -1.60034844895617
H           1.56379045326458   -2.53096821305209   -2.33222015785010
H           1.73368610366505   -1.80533511576026    1.36666932127565
O          -1.68467116412403    2.11868190137382   -0.96146111313129
H          -2.00309439602084    3.00838875712024   -1.11713742320841
O           0.42062103333964    1.15964250963023    2.24758661066270
H           0.28917446762092    1.72695999966420    3.00924787667192
O           0.98286426006889   -1.41501048498165    2.60190412051474
H           0.89271527037485   -0.43124947905557    2.54853393831152
H           0.10451001674840   -1.76295698736700    2.41631699385408
O           0.91383110627992    2.12913731354150   -0.35106960395683
H          -0.70766108427350    2.18914462878705   -0.83442301898663
H           0.92074298316476    1.90955888737144    0.59303782356959
H           1.23436222913465    1.33375910336070   -0.80260988782022
O          -1.83536483968262    0.48080254108427    1.17210391896741
H          -1.49613634018538   -0.32291049865900    0.75162196223057
H          -0.49510432860557    0.95386120924786    1.88229131479502
H          -1.97292076263507    1.10382207254101    0.42896262319751
N          -1.14194415413431   -0.51776616724874   -2.66873458870019
H          -1.66324310068750    0.28273275774247   -2.32476697102371
H          -0.16626623314950   -0.24731169804072   -2.64923134517803
H          -1.25174619278505   -1.25433900055108   -1.98225290106207
