    26
        -50.45300972  Gyration_radius:  2.43477093674 Dipole_moment: 5.199
 S          -1.89294053556203    0.18043404430073    0.87903339627051
O          -1.80380472732489   -1.30981280373631    0.51306677440309
O          -0.58235797477614    0.47161796796156    1.64484303160641
O          -1.85397691787859    0.94503940211924   -0.35862781898974
O          -3.00882440016970    0.41678890447718    1.71521309211125
O           1.07103674768946   -0.69943561096269   -1.94025778600144
H           1.55645424630263   -0.67701402767555   -2.76569318941206
O          -0.35512365346891    3.08173749934872   -0.94424218379989
H          -0.68728905137820    3.84082819146055   -0.46289374049617
H          -1.03211167917045    2.38276988914057   -0.85592089607093
O           1.24081222656477    1.17466007565293    0.02260893677528
H           0.16203695576273    0.74321268164952    0.99362921483872
H           1.25572994223959    0.52961165147197   -0.71288463140317
H           0.84128078381565    1.98826089138493   -0.35493529497843
O          -1.52008294203223   -0.78970005924332   -2.31997749148619
H          -1.75128934239205   -0.06643475085181   -1.69981482209136
H           0.10506911309080   -0.72427005303809   -2.17996434807188
H          -1.89688602465781   -1.58393781327954   -1.93208044638605
O           0.55561450807238   -2.13253785981079    0.34149180898924
H          -0.82524966278831   -1.66706888627880    0.46852268697248
H           0.89269255030636   -1.77299686710561   -0.49576545978220
H           1.10826439753661   -1.72118457748464    1.06249150449490
N           2.00570893979257   -0.83759321857176    2.17743204236469
H           2.35768994716932   -0.03290502386239    1.67164214065477
H           2.76258771693891   -1.23759656795269    2.71653893499947
H           1.29495882631190   -0.50247305910564    2.81654453448954
