    26
        -50.45996621  Gyration_radius:  2.46177062999 Dipole_moment: 6.420
 S           1.63034312158737   -1.16276361798693   -0.57428629123603
O           0.93690681904412   -1.95116128848129    0.41999604950283
O           1.91045007904027    0.19445052745018   -0.10789430254940
O           0.99045503714449   -1.15450157026212   -1.87526959810979
O           3.04099569006254   -1.84665598661202   -0.78163421448805
H           3.32923130299529   -1.43275213058277   -1.58737517059919
H          -0.58852581137847   -0.89193461916344   -1.96839515681246
O          -1.56830739151139   -0.73814275332528   -1.97643023437673
H          -1.93124937176369   -1.41044734257670   -2.55537813428329
O          -0.72788239020439    0.72232516016788    2.38083850708043
H           0.08910826628319    0.26180490826793    2.69707735214796
O           1.59669868372556   -0.53697623389903    2.57983371140756
H           1.37941584516460   -1.22084738336304    1.91731721717825
H           2.21061804588386    0.04713492388944    2.12487072075017
O          -1.61237417958172   -1.15921262539441    0.75666898318434
H          -1.22679990326980    0.02738225230693    1.88258323899697
H          -1.82637629956460   -0.97140869864377   -0.17076437298974
H          -0.75757721509987   -1.62575931864951    0.72038318876163
O           0.23522734906214    1.99580738681012    0.49647440475004
H           0.93772346306278    1.32740374568033    0.19725387628672
H          -0.51867048434418    2.02944659022372   -0.24291479195202
H          -0.21563857246777    1.52106549288638    1.37491582313529
N          -1.63127602011043    2.01871304060436   -1.24814363458877
H          -1.47901160465922    2.64962171444479   -2.02411761032829
H          -2.52263480286810    2.24079301127896   -0.82304348846676
H          -1.68084968623873    1.06661480492239   -1.61256608240113
