    26
        -50.45996631  Gyration_radius:  2.46170171577 Dipole_moment: 6.429
 S          -0.12737514611711    1.72273501228332   -1.16370550467099
O           0.03071401309433    0.45113582679163   -1.86830141506622
O           0.95352615929959    1.97343043693854   -0.23653196931133
O          -1.44857698646305    1.84388138902519   -0.57902835023577
O          -0.03182543506624    2.84430517213388   -2.27431014058975
H          -0.87674560088408    2.75401884795250   -2.70042355523099
H          -1.74986536192935    1.12886372320170    0.82380210758271
O          -1.88723924194283    0.68062755933116    1.69789106735679
H          -2.32632576804501    1.32632146498326    2.25391529740947
O           2.06550266733733   -1.49205336871831    0.48390425420283
H           2.55726697322155   -0.89376861813904   -0.13215797685644
O           2.77318109673413    0.34111706441929   -1.29672776206129
H           2.25375480912640    0.11494959810080   -2.07396848379865
H           2.27243599918872    1.06595827869548   -0.87524755744106
O           0.85134778632096    0.36194999239281    1.91566964956810
H          -0.11026520107216    0.35706138140107    2.04384951166026
H           1.69908474370235   -0.88727747742314    1.17671062387862
H           1.00696592799181    1.06680581389596    1.26100281552961
O           0.03600266233597   -1.87706988741337   -0.87051389770484
H          -0.02983849833923   -0.96856225083091   -1.31799997884264
H           0.95322361069387   -1.80708199980458   -0.27652163432615
H          -0.76050366589087   -1.95824741640802   -0.18072763270728
N          -1.83947478178839   -2.04338122727777    0.85616232144673
H          -1.57101494215560   -2.63898578453760    1.62920461138969
H          -2.72397672245751   -2.37035804565753    0.49008052658913
H          -1.96997910692212   -1.09637550532474    1.21397305222419
