    26
        -50.47391867  Gyration_radius:  2.43985367546 Dipole_moment: 2.202
 S          -0.31575161169775    0.98637700363290    1.63215078477015
O           0.52115489035973    1.55803863992291    0.58877350326696
O          -0.09717328891520   -0.44954796716833    1.74807107158752
O          -1.71390908018874    1.33274943997514    1.52489429363657
O           0.18919250955706    1.62859395241929    2.98737134301180
H          -0.60165337197612    1.56456593373274    3.51020621417988
H          -2.46189412800986    0.77007986393101    0.18335210823189
O           0.66465219792742   -0.74171596026161   -2.38603285251630
H           1.72174747494293   -0.39382987296691   -1.37477612974388
O          -2.82443045985293    0.41444674571670   -0.66245456372187
H          -3.75689950108072    0.63524140896243   -0.67021016386868
O           1.94010735563942   -2.07556532827707    1.27186408995606
H           1.21795650045762   -1.52578416902671    1.64271584629499
H           1.50267991775921   -2.83400514797026    0.87683552903111
O          -0.61873788805042    1.54040140765529   -1.91675014181041
H          -1.50640107843115    1.21674049581147   -1.69580252932347
H          -0.20804762316285    1.74730005893114   -1.06151319155399
H           0.20846201414144    0.12944891300670   -2.46415593136776
O          -0.98388115666928   -1.66771202276061   -0.49201321574052
H          -1.78659417460033   -1.16901987081039   -0.70186006895089
H           0.05576382221102   -1.27225520048571   -1.82371897338803
H          -0.68467759469128   -1.29968535014623    0.35948376315482
N           2.28843748249763   -0.09272650042132   -0.49093347104724
H           2.35358835176811   -0.91405899729107    0.15785987822541
H           1.69530444085719    0.63304921658358   -0.01582933410045
H           3.20100399909564    0.27887332734681   -0.72752785822010
