    26
        -50.47398668  Gyration_radius:  2.43772811235 Dipole_moment: 2.220
 S           1.80711385829207   -0.61849036045877    0.22374323961867
O           1.16789655079531   -0.82705316313331   -1.07466047357217
O           0.85512449188407   -0.79537010256480    1.30269054882810
O           2.55467434132945    0.61599941809654    0.28053648965683
O           2.87196311448256   -1.77817932245436    0.38236788190066
H           3.62462215154766   -1.37374378303871   -0.03364265514905
H           1.63570285091004    1.97113878667271    0.35031540398794
O           1.01215884421967    2.73452921915447    0.31995550175070
H           1.54027698631888    3.52026027947124    0.46823195876670
O          -2.29794346776939    0.72395173354536   -0.90831882376911
H          -1.85965590133050   -0.71377075953210   -0.96253497425690
O          -1.28775330348981   -2.30750594225331    1.69829602033323
H          -0.40110504639530   -1.89183081705494    1.70611177580659
H          -1.84234572276765   -1.73375988458569    2.23288383541195
O           0.01684965938048    1.50021664805733   -1.96579842428736
H          -1.59462905638652    1.13266316561937   -1.46566661237859
H           0.32416394033767    2.13725084396990   -1.30206221334792
H           0.52578876959849    0.68984424790033   -1.79673707759273
O          -1.01458145562749    1.15917869277763    1.39611101860272
H          -0.49136447313442    1.94115964444145    1.16812472149030
H          -2.03268621113232    0.95944711931690    0.01018998369409
H          -0.35747594565741    0.44318423633156    1.46104144214547
N          -1.33554868288925   -1.67002564675875   -0.90546589811099
H          -1.65076567239495   -2.32012916911550   -1.61609766903655
H          -1.45393211080405   -2.05909373123202    0.06048809882268
H          -0.31654849934600   -1.43987134314884   -1.03010312931387
