    26
        -50.44227885  Gyration_radius:  2.56571615309 Dipole_moment: 2.861
 S          -0.79239639395655   -2.35896442438488   -0.70016691856172
O          -0.81908067623938   -2.39991283322107    0.73721239413170
O           0.46874167240521   -2.38030279020437   -1.34563926108069
O          -1.60889008147483   -1.15308986716490   -1.17533257397829
O          -1.62984308586700   -3.58934466123446   -1.20770266541459
H          -2.23478481893004   -3.82126538617712   -0.50704601089289
H          -2.06492890933964   -0.72140339355334   -0.32576117096446
O           2.20231569622866   -0.23450348346570   -0.88499464099653
H           1.92503635699506   -1.09409436365859   -1.22558946891498
O          -0.49208578499371    1.47569366142823    1.08859902124866
H           0.07258050077926    2.27557547768634    1.07475782207265
O          -2.47218145432743   -0.23574448399761    0.96531046474104
H          -2.05579908935842   -0.91971667192582    1.50794239401256
H          -1.91306407073469    0.56897351117317    1.08124633614332
O           1.11534763426588   -0.56409135239491    1.53926746547232
H           0.58531064975354   -1.35758394144451    1.39230372561782
H           1.68021400263273   -0.46058432595893    0.73926642445812
H           0.12615897365520    0.75679009165418    1.37677087276970
O          -0.00541020893408    1.20182249249790   -1.59423661007881
H          -0.58842591769457    0.50465946759108   -1.90700353751544
H          -0.27714571788174    1.38446338629904   -0.67150306878410
H           1.55166302509582    0.39879175273168   -1.24941570705730
N           1.57689135214652    3.11635104848022    0.46187789098034
H           2.30677915320500    2.42636988987099    0.60136348662386
H           1.93519401896739    4.01325330369383    0.76493499235464
H           1.40780318359730    3.16785790567751   -0.53646168638776
