    26
        -50.44218294  Gyration_radius:  2.62721367376 Dipole_moment: 1.560
 S          -0.46118095210673   -1.28568426008754   -2.25724109344346
O          -1.29450595163197   -1.51450017973262   -1.12013282607301
O           0.90965708812853   -1.67360737275135   -2.16701120978720
O          -0.55768991994230    0.16921568288708   -2.69989486630397
O          -1.09638039355996   -2.07794966766821   -3.46518824220536
H          -0.41615333550734   -2.15877387295580   -4.13015727789500
H          -1.36226204720049    0.61913795240213   -2.19154329793383
O          -0.62265718593884    1.39059363484972    0.58144011829743
H          -0.10394742136569    1.87156618858704    1.26348459522762
O           1.68824885118499   -1.07482978330821    1.87061189369407
H           2.16696488098265   -1.89250204465386    1.73063186723664
O          -2.40555799118820    1.04540889861320   -1.28670694840945
H          -2.70311792899995    0.18881966041884   -0.95580377125180
H          -1.83712484899529    1.41501286679755   -0.56656434791613
O          -1.04187831571434   -1.02015137621072    1.60466117504248
H          -0.10473011860251   -1.16485432154073    1.83815132943507
H          -0.87028396288832    0.54774054458324    1.03634250316905
H          -1.18107526510742   -1.44509653936192    0.74788162419089
O           1.69433896829839    0.29774690039528   -0.40245200885271
H           1.51553394765171   -0.35155012548636   -1.09562948885140
H           0.86890601021278    0.79471964020837   -0.23843967563432
H           1.80284395570458   -0.54579430693416    1.04199105618989
N           1.13840656915982    2.00107817452733    2.54785403203925
H           0.95858622522409    2.42514455875222    3.44910318754740
H           1.97569430488752    2.42131642307338    2.16365109156186
H           1.33936482730656    1.01779271448463    2.70096058036163
