    26
        -50.45300966  Gyration_radius:  2.43475413202 Dipole_moment: 5.199
 S           0.11862007865219    1.13428471081266    1.75709502006390
O          -0.94682838323175    0.07456109016509    2.08048187245390
O           0.50209112139778    1.82212969671407    2.93185028252349
O           1.31258909071069    0.32714283852485    1.19865006445376
O          -0.39236811137723    1.96237610466363    0.67489409391273
O          -1.49522799129975   -0.73570167555306   -1.62001988052904
H          -1.94540953791868   -0.83354064450612   -2.45982121443527
O           0.84805946534454    2.70376481764838   -1.57605109501854
H           0.29944363264759    2.60513120835493   -0.77356985564345
H           1.51744212781210    3.35654635930162   -1.36616134263235
O          -2.72428426564701    0.94620258599312   -0.03037914523834
H          -1.93432401332180    1.47564854175177    0.20798083780519
H          -2.02328420702563   -0.07882586394507   -1.09009348776053
H          -2.99333585204475    0.51454809387136    0.78481596117133
O           1.08732006775535    0.05916502583351   -1.31667196984299
H           1.22053612063819    0.20367349419844    0.18458512009180
H           0.17789070875914   -0.24709371961108   -1.50753864018041
H           1.10852746270352    0.99909964564325   -1.59983858071036
O          -0.71782832898791   -1.99563000641100    0.68949467459574
H          -0.84026752363870   -0.80209622618753    1.52610767235783
H          -1.04336279502240   -1.74971204834429   -0.19223089299992
H           0.24730841522586   -2.21960827091167    0.57644345816039
N           1.89038651362628   -2.41223778824937    0.27225630827009
H           2.31653083964728   -1.86307429151724    1.00903265101890
H           2.06706685127921   -1.93011518576005   -0.60157945958040
H           2.34270851331613   -3.31663848248228    0.24026753769207
