    26
        -50.45841241  Gyration_radius:  2.47277158762 Dipole_moment: 4.874
 S          -0.57243312617878   -0.90794057313917   -0.07061666386760
O          -1.99861251483286   -1.07466863808021    0.03725016096652
O           0.11439957462866   -0.94750124419162    1.22083448500456
O          -0.19585356203178    0.29529871055608   -0.81977750362758
O           0.03210375273007   -2.10117986822472   -0.89351791105700
H          -0.57959265528410   -2.15905323479689   -1.68678452948670
H           1.34291595284248    0.08161692333570   -1.26182477569677
O           2.29220292801359   -0.20594642206278   -1.29982217052421
H           2.26195853050929   -1.13452204950725   -1.54569859497577
O           1.84229874320591    2.39082193980526    1.69535532281166
H           2.28196814077308    3.01768796639723    1.11755409235419
O          -2.08948078697236    0.54779004877410    2.21280426676173
H          -1.43540746625746    0.05809776296838    2.71884899635798
H          -2.28847223063583   -0.02181937153714    1.45044682204160
O           2.40709106005768   -0.00764963682797    1.23027705350155
H           2.23638319383035    1.00618598133173    1.47382109887312
H           1.46156248899701   -0.46036314438596    1.32889730048255
H           2.55609212731171   -0.05521150514053    0.21646517137473
O          -0.58746045185699    2.34378722051188    0.86183440315247
H          -0.49841432154132    1.71740008204784    0.11944350405250
H          -1.21500314671609    1.90550720385093    1.47235220583229
H           0.86092581529804    2.42613208582238    1.44986662567001
N          -1.82685858929187   -1.78924808787151   -2.68157856241628
H          -1.66275076479155   -0.99010181761580   -3.28025640527711
H          -2.35805971492228   -1.47074336240313   -1.87392597116584
H          -2.38150296691850   -2.46437697958062   -3.19224841115748
