    26
        -50.45841236  Gyration_radius:  2.47250215622 Dipole_moment: 4.873
 S          -0.99533139349116    0.18144074777354   -0.36571703548055
O          -1.40902437206481    0.49352938849360   -1.70907458958655
O          -0.61636497246244    1.36127046634862    0.41243097267286
O           0.06421337001611   -0.83149222723968   -0.31798370259021
O          -2.19874658855473   -0.45626985787379    0.41642513367831
H          -2.54676673606830   -1.14193995886207   -0.22812918465061
H           0.06168858461435   -1.40712652067744    1.19092810534832
O           3.01669273926307    0.94825765418535    1.40641284472185
H           3.57529849814183    0.20834863242011    1.65237216957435
O          -0.03688660267611   -1.50291163923314    2.17401522056709
H          -0.98451759945932   -1.55318136300296    2.32595302681551
O           0.59984296213060    2.30107280605202   -1.97813903307853
H          -0.15033737106061    1.69653026279895   -2.10832708799406
H           0.36994040663924    2.80975320566484   -1.19578862157441
O           2.31375494859541    0.44662240735241   -1.01330205650886
H           1.56968617719142   -0.16226413845315   -0.84874483525274
H           1.90582451273893    1.20433343137881   -1.48031785800868
H           2.80468503798903    0.82351492355891    0.42455846868023
O           0.73249235630536    0.90341493622324    2.44013622030458
H           0.13669147464086    1.20487159370721    1.62611601517688
H           0.49273397047900   -0.09116090826967    2.51632961842128
H           1.72155900308953    0.95952018041362    2.07309604668935
N          -2.65165621536153   -2.03172473911491   -1.59934999810471
H          -1.98553661509865   -2.79117985110080   -1.65745615471889
H          -2.27409800731396   -1.24442604976455   -2.12231803213649
H          -3.51583759824839   -2.32880338274560   -2.03412563297935
