    26
        -50.45841241  Gyration_radius:  2.47272528162 Dipole_moment: 4.871
 S          -0.79894915413200   -0.69901086094756    0.17317360106365
O          -0.92874978522898    0.34376653248906    1.19141337570693
O          -0.71896146458673   -2.02673708194733    0.72445395044925
O           0.30768359741759   -0.39499251402895   -0.73994618064157
O          -2.09368788999077   -0.57618065874046   -0.70717134862232
H          -2.06258299915082   -1.40710810480420   -1.26860066328572
H          -0.17317240450895    0.87484052782734   -1.61466129836534
O          -0.61865190816703    1.70755420070215   -1.92028156908715
H          -1.53343770880519    1.45803595870103   -2.07687768094778
O           2.07754435758420    2.62784100594969    0.87253812730864
H           2.60923944228730    2.95480321791611    0.14418576476483
O           0.93740282994043   -1.17758259489067    2.70168813556186
H           0.35394730447468   -0.48188391292004    3.01677597913476
H           0.39483500275034   -1.69151150598087    2.07980504659674
O           2.42544137086195    0.08270209672450    0.82972155111349
H           2.11186153806169   -0.38107329960319    1.63299424943062
H           1.77840031040239   -0.16385671541236    0.14271536259497
H           2.27342855454514    1.63688471479433    0.93786831092402
O          -0.39090222298557    2.64026833267252    0.43165392834941
H           0.64200295352265    2.71345300256788    0.64171449384130
H          -0.48375246982905    2.45423729148665   -0.57291372574176
H          -0.67475498003721    1.71553442818212    0.84717427605391
N          -1.50543052167669   -2.83019815408955   -1.85789196736262
H          -2.08564119042952   -3.61532083812431   -2.12438773786944
H          -1.08531906506481   -3.02463114047937   -0.95147549119201
H          -0.75779348728930   -2.73983392806526   -2.53366849984885
