    26
        -50.45841236  Gyration_radius:  2.4725395037 Dipole_moment: 4.875
 S          -0.56734139225837   -0.59316298273954   -0.69662661762535
O           0.84005059974534   -0.92947020476542   -0.91371377130752
O          -1.24131991931476   -0.16150763712390   -1.89351973160903
O          -0.70615653619803    0.36003116345386    0.40930783956974
O          -1.22926959552275   -1.91759668098606   -0.17290940037889
H          -2.20959342572034   -1.70764550090410   -0.20958673924559
H          -0.34373348856833   -0.45968595433820    1.75290559712476
O           2.91151813241791    1.40206926041476    1.23901922600913
H           2.80694113470231    1.80182917971883    2.10464747873560
O           0.03689863081677   -1.11079423031275    2.39826104365429
H          -0.40523570890979   -1.94170465346114    2.20411942999343
O           0.90522556312313    1.32275817421473   -2.64531576876401
H           1.53669358506282    0.60002988556154   -2.59411581608161
H           0.03574181802133    0.89658102454280   -2.55832547340791
O           2.23672520704499   -1.01061398463792    1.13171525793010
H           1.46169682095181   -1.10153626951491    1.79769506636908
H           1.73013514869651   -1.03782214396737    0.20923776936580
H           2.59505389794158   -0.01919290545788    1.20234141030104
O           0.97881705008675    2.36585351964863   -0.15267007267887
H           0.25911143869859    1.76822608420061    0.12359947824129
H           2.21958035974582    1.83976487308398    0.64387939125570
H           1.06105193673450    2.21384063717775   -1.11641425941515
N          -3.57572120117626   -0.84202468595368   -0.47083373734797
H          -3.79286851325741   -0.17285659468495    0.25646837850245
H          -4.44351900181810   -1.22060209754822   -0.82822367354278
H          -3.10048254139280   -0.34476728563562   -1.22094230575818
