    26
        -50.45866519  Gyration_radius:  2.70436266262 Dipole_moment: 5.347
 S          -2.50416742004953    0.44761208065431   -0.74717514634135
O          -1.44395348073612    1.42573412272922   -0.62093537646246
O          -2.77522701944629   -0.25109232865797    0.50071892911706
O          -2.30084216089968   -0.48653354821596   -1.84587330509079
O          -3.81815503449628    1.26431229418997   -1.10579341858334
H          -4.45649759017002    0.57196797799863   -1.24441713104423
H          -1.01556761224064   -1.25825184065909   -1.48563704582017
O          -0.16866560238423   -1.73984689774545   -1.24279477728645
H          -0.25454972887809   -2.61669941325691   -1.62063968924760
O           2.91358370732816    1.43376043279737   -0.19201429839427
H           3.62514141614012    1.64742298823761   -0.79671337650817
O           3.07531104744356   -0.53581024418299    1.52537616896689
H           3.08654107351727    0.18842902200259    0.84497215838472
H           3.30686812293046   -0.11220577631744    2.35372464051594
O          -0.96451593779581    0.86496546466016    1.94149354646397
H          -1.79120393992483    0.44014011729580    1.60098520586921
H          -0.05448513534501   -0.32879506718346    1.62278644853742
H          -0.79432556170643    1.52600677343713    1.25447981993149
O           0.88923691063845    0.83003079036283   -1.76023070861525
H           0.75014440152181   -0.12359541531573   -1.81423198545523
H           0.03937494754786    1.18592346515395   -1.43063735340056
H           2.12088588425975    1.26110332289668   -0.76403407890614
N           0.50262897305489   -1.20858477888152    1.33381002280281
H           1.53645020549896   -1.00737883989554    1.41169877896368
H           0.25512894455818   -1.43667906179023    0.34492473086602
H           0.24086056961570   -1.98193565030572    1.93615725073832
