    26
        -50.45866513  Gyration_radius:  2.70407174001 Dipole_moment: 5.346
 S           2.03737842539558    1.66300235651819    0.33253598401508
O           1.97114771404749    0.53376282695921   -0.57144703540840
O           1.84535531719518    1.28068574466302    1.72388646794543
O           1.15393246990410    2.75771213265432   -0.04454374899539
O           3.51468076576805    2.23458070041941    0.21794181712169
H           3.47770361841727    3.00609167500187    0.77418051300004
H          -0.27130311591278    2.17835282320632    0.05715610516672
O          -1.19123925516640    1.78013193587378    0.11412151819798
H          -1.77116822855778    2.50600213977877    0.35036584463381
O          -1.09257938004329   -2.13394538758852   -2.19544480871183
H          -1.49825537207181   -2.20714062286810   -3.06013493826023
O          -2.44438676464691   -2.46873167440065    0.02154830262507
H          -2.24853865033516   -3.36890241382215    0.28712332271702
H          -2.00159429850574   -2.35021541268932   -0.86022600048037
O          -0.19805058878414    0.33855786234316   -2.10549165583275
H           0.68214789897376    0.40261442848381   -1.68275069070803
H          -0.69488910625542   -1.22496752740716   -2.16406026233759
H          -0.76731846895191    0.90588591053201   -1.57092639873905
O           1.44541862509594   -1.23055428635409    1.35769678603559
H          -0.06031201737447   -0.93464164695575    1.36631905611145
H           1.72880034215885   -1.16385739163862    0.43405206861067
H           1.71245761745471   -0.34371113308609    1.70696890168603
N          -1.09334662164705   -0.61775173878509    1.38398160924863
H          -1.39653763210290   -0.52229522636844    2.34750718919541
H          -1.68465909053659   -1.32921197327034    0.87458724372059
H          -1.15484421351936    0.30854588874286    0.90505279963778
