    26
        -50.45582935  Gyration_radius:  2.54150669492 Dipole_moment: 3.446
 S           0.05524403904538    0.34543365547564   -0.85075834160694
O          -0.10195050894026   -0.91965377083367   -0.08562363045907
O           1.39549332951740    0.86789219103976   -0.69903726678919
O          -0.98083994248001    1.29309735134806   -0.44462292575920
O          -0.21942215258268    0.00768591795099   -2.32069857717884
H           0.57277880168065   -0.58782531605804   -2.67058957006511
H          -2.47092541702761    1.01144217649731    0.12422248742751
O          -0.43973395413196    0.74279293525344    3.32848434652325
H          -1.00723847108288    1.31799880044565    3.84528304890090
O          -3.26743175398555    0.63038008950467    0.57586674264140
H          -3.82206875510039    0.27069500870953   -0.11853661418374
O           2.60743618735817   -1.48537455394873   -0.42430847031745
H           1.84624156908374   -1.88368941590917    0.01001954975021
H           2.38104741705954   -0.53612409542022   -0.45634091422463
O           0.55713214736218    2.28170727180474    1.46769032236532
H           1.34435156626216    1.96895114068784    1.00348706605267
H          -0.13858323356370    2.17516473938728    0.79241833884321
H           0.03379693058980    1.33368827476133    2.67901898198098
O          -1.64514037495488   -0.90570770129238    1.81272177853173
H          -0.94238312041583   -0.97113665206149    0.96970813182947
H          -1.16710473184080   -0.29940819301457    2.49523288454973
H          -2.41264007365952   -0.35911579060957    1.42604756721582
N           1.73871738020208   -1.43604643519727   -3.07671819468102
H           1.49754739814288   -2.31720379166603   -3.50986766681509
H           2.21896345816971   -1.61472644019815   -2.18599723598822
H           2.36671226543529   -0.93091736665097   -3.68710180864180
