    26
        -50.44393148  Gyration_radius:  2.57600765212 Dipole_moment: 4.504
 S          -2.10581266643479   -1.55068134990626    0.48918394365525
O          -2.37199018268637   -1.29568151064594   -0.93899928810853
O          -1.62001924606535   -0.36612362405536    1.14296563733502
O          -1.25497469959679   -2.71528841587494    0.66407850441761
O          -3.50587023182830   -1.91315461760166    1.12751023954051
H          -3.70692789311597   -2.76777651821796    0.75686656554651
H           0.14410799230364   -2.20698847624601    0.15883257044742
O           0.94377713254339   -1.82482083787689   -0.30241856732298
H           1.33225889182390   -2.54748129390109   -0.79994402783719
O          -0.67008744162775    2.10430601139768   -0.20892571027220
H          -1.61387954189088    2.11914496438351   -0.03173020762978
O           2.39308556264562    0.18014085043343    1.02250269526339
H           2.46011316364727    0.75123761552861    0.22932848894359
H           2.00665184851681   -0.64998032137919    0.71474939220142
O           0.24833266679577    1.37635696981181    2.05241538860854
H          -0.40244783617343    0.65851858899728    2.08160689717554
H           1.11447544462503    0.95231400407403    1.84253687620076
H          -0.24964861218517    1.90111564353196    0.70519326565164
O          -0.38629592151440    0.01470616140233   -1.55503022661606
H          -0.46833652667901    0.91986317236477   -0.98331888222636
H           0.28490601515172   -0.58408359446106   -1.10501195363272
H          -1.30445174459561   -0.51283446829182   -1.38788744902665
N           2.22116943650703    1.79266149444044   -1.23030938781359
H           2.05837498191485    1.39426675120822   -2.14687745295696
H           3.03116401782651    2.39627939255312   -1.29454115633961
H           1.42232537008442    2.37398338829062   -1.00277614522166
