    26
        -50.45028639  Gyration_radius:  2.64099346839 Dipole_moment: 5.324
 S           0.40158947498270   -1.20193642339529   -0.93725510758652
O           1.35665295299555   -0.15023515704618   -1.07717488385228
O          -0.97171702147721   -0.79251627493878   -1.47866614585123
O           0.23015680167965   -1.68403890893707    0.42048067679154
O           0.78138703529781   -2.37757683271541   -1.84590320932081
H           0.06626244104445   -3.07464521596070   -1.63458650349541
H          -0.05367168013261   -0.50007496236978    1.53942214969011
O          -0.59901366774908    3.20843521493497   -0.48979003039278
H          -1.03839590010482    4.03157963810238   -0.27130601408864
O          -0.37869659718048    0.22758175928042    2.11687702420525
H          -0.47384198779314   -0.14173276814348    2.99640865697411
O           3.07588662987915    1.50711149190425    0.18201082235873
H           3.39883488199490    2.06135675732928   -0.53095466380233
H           2.51300869959713    0.83602071242477   -0.24392705183790
O           0.99756442352714    2.60974855944496    1.51446924655209
H           0.06740455718697    3.05193832974202    0.23195607247111
H           0.56100856866459    1.81641915102267    1.85781636592307
H           1.83680906109277    2.28889035123453    1.12490781877844
O          -1.92107894813346    0.99028933691571   -0.02154264714157
H          -1.41124534535931   -0.01874872605071   -0.90188998950623
H          -1.52696908789981    0.78991156518024    0.84644706557491
H          -1.48856202017649    1.83916299032325   -0.31178254093630
N          -1.16164779363263   -3.78115563196743   -0.93224211152060
H          -1.24417868411537   -4.78094348482970   -0.80403613528757
H          -2.02685257714045   -3.42102204699088   -1.31260815481832
H          -0.99069421704815   -3.33381942446299   -0.03713071989231
