    26
        -50.44601927  Gyration_radius:  2.5106964261 Dipole_moment: 7.332
 S          -0.39871834673777   -1.34416573345102   -0.00685219854548
O          -0.71171589624715   -0.63077859591342    1.21799766686294
O           1.02595412290513   -1.22551157347447   -0.35447262677623
O          -1.23206147422325   -0.86704450758312   -1.11128358781928
O          -0.66745162093272   -2.85116713202072    0.18862907869461
H          -1.61982582910974   -2.85209075122043    0.49260011859386
H          -0.92258874434676    0.50712374036382   -1.68321352255720
O           2.15166487548959    2.16736291221165    0.54614862664713
H           2.42960405559174    3.08349015693770    0.58460719362907
O          -0.60105687459350    1.40319215187609   -2.02896667138548
H          -0.93255568564107    1.47198276080835   -2.92625998905677
O           3.16091560038918   -0.50543218112176    1.36496724056119
H           2.45911804404534   -0.96873748829294    0.89132941923593
H           2.91140450311916    0.42322913353479    1.37107266593431
O          -0.41381636503398    1.95026415234011    0.80089643567782
H          -0.76887970489995    2.01709491562749   -0.09272814609080
H          -0.55899499338358    1.01645653927788    1.08003915464518
H           1.17708402393506    2.13920426475205    0.78034135095979
O           1.82425623572509    0.77186894784771   -1.55216763942376
H           1.55998744724168   -0.16301081091146   -1.08887733095236
H           0.91466637543931    1.12584761527851   -1.85617989158339
H           2.10966058234898    1.35607051698694   -0.75650701893328
N          -3.05517205031789   -2.19677205245608    0.96926183196351
H          -3.74965396214017   -2.56886030585932    1.60417286868003
H          -3.52230680061859   -1.83483777104704    0.14812408074037
H          -2.56951748776295   -1.42477890434336    1.41732088025120
