    26
        -50.45054790  Gyration_radius:  2.51922043256 Dipole_moment: 7.500
 S          -1.33572164846451    0.39105484401086   -0.02940590347258
O          -0.50685990919663    0.46565455962328   -1.31754576664132
O          -0.66259334217353    1.02257496272301    1.06395154087359
O          -1.66641294026130   -1.00113315316095    0.20659185086880
O          -2.59981227807607    1.16256867181685   -0.39194301795793
H          -2.99998755392342    0.61328943771948   -1.16524315379300
H          -0.36098975896605   -1.80757443026007    0.83020746839864
O           0.50329719140771   -2.20727827707987    1.08027255304527
H           0.34707701379927   -3.14604493132540    1.19786392420633
O           3.06309200814376    0.86453250945141    0.69813860948705
H           3.97059645803950    0.93638830412939    0.99515337062638
O           1.15223826459986    2.89651484977938   -0.04286504857549
H           0.42705402375163    2.42354489507747    0.37995412583735
H           1.93733451081622    2.35661647378571    0.10999562847524
O           1.39591084158070    0.00431174989431    2.55685071850669
H           0.62827700346938    0.52338694026553    2.26929094836615
H           1.20047213365012   -0.89942450213633    2.27045624106601
H           2.51945686251211    0.60342368081822    1.48573316230166
O           1.66179368749364   -0.73911542218911   -0.92559318496290
H           0.42597795654666    0.00802411025571   -1.21938685017295
H           2.26613302230645   -0.10595007308493   -0.48068736427483
H           1.40329242879559   -1.38292699768272   -0.24068745418134
N          -3.21477541464334   -0.53107130066555   -2.19786011194553
H          -2.84605706780373   -1.27061444969098   -1.60951493197176
H          -2.58270300016765   -0.38745164185685   -2.97434961040622
H          -4.12609051321702   -0.79330083021722   -2.54937773360224
