    26
        -50.45054782  Gyration_radius:  2.51899767978 Dipole_moment: 7.511
 S           0.36144036140883    1.21040550262999   -0.58561662139518
O           1.17943677620685    0.67953662529205    0.59797845344543
O          -1.04011784351528    1.20561974462596   -0.29736079698072
O           0.72486627638153    0.43959581913490   -1.75902778590819
O           0.86795659228721    2.64054702160340   -0.73638366858577
H           1.86628853520897    2.51697081073762   -0.95598073358192
H          -0.01237495396701   -1.04349699984803   -1.73185272964595
O          -1.96022578596353   -1.50235817526841    2.12391184037461
H          -2.56037842997887   -2.07919157348314    2.59719418483313
O          -0.40142147795034   -1.93001624350967   -1.55332703055838
H          -0.14386114065259   -2.49454685402489   -2.28442190660077
O          -1.31214934366203    1.28161314396423    2.52275783008224
H          -1.27626881764723    1.44943780133910    1.57471245506216
H          -1.54122491495365    0.34838682636559    2.61198423735595
O          -2.73193577527648   -0.94772542200066   -0.33985462615654
H          -2.37778090858321   -1.30590525122493    1.24578085393191
H          -2.38162849058635   -0.04325563347914   -0.36725676034496
H          -2.11721999272774   -1.46409641143952   -0.88062194547128
O           0.47827985975321   -1.69260521568847    1.03362173202838
H           0.17726753851292   -1.97123926181725    0.14924789165462
H           0.92003108471402   -0.29800717662499    0.85562722094644
H          -0.32993722431606   -1.65485006407240    1.58988734911720
N           3.22195849091926    1.83470604236449   -1.29963552594936
H           3.93337274602529    2.27635813000368   -1.86683317879669
H           2.81778720913404    1.05114118407917   -1.80132192743216
H           3.63783964926003    1.49297565032804   -0.44320881149735
