    26
        -50.45054791  Gyration_radius:  2.51917342985 Dipole_moment: 7.513
 S           0.03510371420318   -1.14924581263733   -0.78446276698272
O           0.21333773117393   -1.49029872041706    0.59372596477360
O           0.90106397463252    0.05246338064947   -1.18168711553480
O          -1.33684204869234   -0.84729030627499   -1.14454429575071
O           0.56553824030463   -2.26315096862744   -1.68012228797911
H           0.36939291757180   -1.91795400249798   -2.63012377162598
H          -2.01302675978739    0.18548001212808   -0.03990188411786
O          -2.26938038764057    0.88549159842208    0.60311788059231
H          -3.16034894718570    1.15545175313484    0.37328290326024
O           1.12149769093670    1.49372933925479    2.66890506606217
H           1.25310715982188    1.98037435425183    3.48299980570400
O           2.75309837900247   -0.50645723384822    1.37769423772189
H           2.40513469969238    0.25027768413151    1.86507407477113
H           1.98214877966577   -1.02054258529417    1.11376945143884
O           0.19687627424134    2.02011048622823    0.21144468661548
H           0.68275240852957    0.90469901680268   -0.62026334578391
H          -0.73417189949890    1.80066803264527    0.39944792423150
H           0.66622489786041    1.94561859519688    1.07068458594740
O          -0.87635691194596   -0.23011500631712    2.76708708562675
H          -1.55540246607652    0.19461406560719    2.22351214128319
H          -0.47878535266178   -0.89692916258390    2.18496724143947
H           0.40112527628289    0.83307085110606    2.83846347685778
N          -0.16691585136107   -1.02882001727787   -3.78905727655590
H          -0.98548778810045   -0.69527906317967   -3.29134912269797
H          -0.43956345671255   -1.40135924310292   -4.68886906858830
H           0.46987973595132   -0.25460707754519   -3.92379557084674
