    26
        -50.45754025  Gyration_radius:  2.44581379504 Dipole_moment: 4.163
 S          -1.24979852887115   -0.29826488334612   -1.04516312734721
O          -0.59072669767796    0.95375580552308   -0.65256464830648
O          -2.40740070401227   -0.56849959903299   -0.21000126495058
O          -0.27686028119727   -1.39211568481259   -0.99775446254462
O          -1.74146001992662   -0.14238739173907   -2.50066325959380
H          -0.88334739234656   -0.02051227671193   -3.00397783168970
H          -0.03661838112481   -1.83630702505489    0.51977009425715
O           0.07631199732467   -2.03428003292155    1.48734819512197
H          -0.10474829926940   -2.97026995963602    1.58989470901343
O          -0.75731675196979    1.75453330574104    1.83736489194615
H          -0.75207822757225    1.63921713604353    0.85436191341181
O           1.81601480724753    1.40796103916060    2.24374411401730
H           2.37256594978394    2.18779337002378    2.25189384947300
H           1.97756146820709    0.95914883780107    1.37981347582844
O           1.92335231643699    0.29931938651145   -0.18127480130835
H           1.85220067580725   -0.65539169559198   -0.09864672278998
H           1.01987025381800    0.59674496972671   -0.43021245864537
H           0.19624025867633    1.68015838683243    2.11417535034738
O          -1.80119350288073   -0.43345015638626    2.22504568466882
H          -2.22804160389152   -0.50028332722281    1.29424540962444
H          -1.02407630646865   -1.07570060866822    2.14682399561008
H          -1.34810363150094    0.60812634071662    2.18138113844103
N           0.73281527260946   -0.00472076027507   -3.29108840730116
H           0.89439363611222   -0.74425104085940   -2.61448297990210
H           1.16061711547352    0.84070029512705   -2.93531928666746
H           1.17982658719884   -0.25102443096216   -4.16471355073713
