    26
        -50.45754081  Gyration_radius:  2.44548642779 Dipole_moment: 4.171
 S          -1.43039058485313   -0.82094646341744   -0.19485160980173
O          -2.47347919611346    0.10294318243471    0.21511734504833
O          -0.37771435674352   -0.92123975828686    0.82435484067214
O          -0.82945028135944   -0.43226148667505   -1.47270041927162
O          -2.06952456651759   -2.21715147391269   -0.35843141040630
H          -1.30081082761423   -2.76528145579970   -0.69462281240026
H          -0.48976807258437    1.12923109679623   -1.45439405259987
O          -0.28314243893520    2.09645074584531   -1.35375318005704
H          -0.70459814829098    2.53652186279272   -2.09407202369818
O           0.07357672289311    1.12086247952420    2.39884731327404
H          -0.10402323023574    0.24427559344991    1.97349717999246
O           2.46564635500440    1.52233652087100    1.39232358410030
H           2.35634140258586    0.87314605121132    0.65678715726276
H           3.21859419794505    1.22592225518424    1.90540488009052
O          -1.48335439802836    2.30547108465483    0.91755723256017
H          -2.05087700837595    1.48029593354932    0.69887651599248
H          -0.75854491029248    1.87220732296149    1.68567204311611
H          -0.94651721429795    2.42398968722049    0.06966256329853
O           1.87474961366660   -0.33853063309538   -0.42526553214036
H           1.54353043139922    0.08995004615897   -1.21895016882373
H           0.99610067478762    1.36762295084715    2.11492142414157
H           1.07005958467028   -0.64469332140082    0.04944566456313
N           0.18585243300430   -3.10253195144556   -1.30519290586451
H           0.40311438188052   -3.84769052200609   -1.95422042517372
H           0.89284840970882   -3.08712588439990   -0.58117689536810
H           0.22178103670575   -2.21377388306914   -1.79483630849480
