    26
        -50.45754065  Gyration_radius:  2.44562532094 Dipole_moment: 4.174
 S           1.19526378982459    1.10707913662393    0.31275276087510
O           0.74027323363011    2.35525147820338   -0.27441609154003
O           1.11754332887416    0.00454291860323   -0.65430706468564
O           0.42644560602369    0.75524904234296    1.50874477419611
O           2.67536993678683    1.28362654917782    0.71604196337843
H           2.88132937731198    0.40914181106667    1.16021382530896
H          -1.13549506080793    0.92879602575094    1.21501579189696
O          -0.67401112428779    0.10390799182473   -2.56063087755706
H           0.13065323011576    0.02731806433108   -1.98837572155134
O          -2.08654204328134    1.03399341137710    0.94565292597063
H          -2.48026261002436    1.62765742798759    1.58746026374174
O          -1.98873822805037   -1.95515623693980   -1.59663957471463
H          -1.46736101163979   -2.00285679045754   -0.75983980094351
H          -1.87438438989148   -2.79933310952658   -2.03520340092769
O          -1.51565898915483    2.06353097395524   -1.34674588415587
H          -1.22110195404628    1.18313309483408   -2.01016499692210
H          -1.94086802939861    1.65757031714331   -0.52469066351902
H          -0.59901506619259    2.35530617152154   -0.99238565798272
O          -0.35597102343864   -1.85149511324163    0.51086709125036
H          -0.77497767975570   -1.34368990144515    1.21077197480108
H          -1.24968235516589   -0.66881294616840   -2.30773175826327
H           0.26678376704843   -1.22238841742426    0.08304967811257
N           2.61423521508963   -1.05660035282987    1.85034941233153
H           2.49243172406695   -1.77804794126656    1.15112515668924
H           1.69301493552585   -0.77341604994179    2.16990295215487
H           3.13072541083815   -1.44430754551901    2.62918292207590
