    26
        -50.46862860  Gyration_radius:  2.47507830634 Dipole_moment: 4.022
 S          -1.87778514542674   -0.45569380532441   -1.14603495812347
O          -1.63866595998257   -0.87001981996166    0.24705425996291
O          -0.71897205466298   -0.69371658067711   -1.96238108635586
O          -2.41897169798649    0.88570987459536   -1.21708589741394
O          -3.03379987707982   -1.40766465948238   -1.67482346137066
H          -3.80705655223271   -0.91807707635599   -1.41505704422763
H          -1.12559636400529    1.79538325364416   -0.91931714147833
O          -0.34534524236361    2.33235259707333   -0.63552368684976
H          -0.35751343472344    3.12403043682002   -1.17618035414589
O           1.50421227499533    0.16448303482110    2.27170890368139
H           1.77857023946490    0.32460702916466    3.17475769223389
O           1.86559673963629   -1.21764644440839   -1.58207781962757
H           1.29191805864903   -1.71921625808231   -0.28417608063906
H           1.00204233083769   -1.06542781194712   -2.00967648411885
O           2.13522873700841    1.12586656330207   -0.34247710268295
H           2.15169449242820   -0.32278410822677   -1.28362765898984
H           1.29039115242436    1.57382447597091   -0.52004572203603
H           2.11562115734304    0.89094953381293    0.59502503529314
O          -0.84910251693409    1.16270764712053    1.81092392437743
H          -1.28812318613540    0.43027314932078    1.33435449645444
H           0.60123792689193    0.58944546198374    2.16894745724710
H          -0.70220371433863    1.83759252327797    1.13070676111823
N           0.74944309962195   -1.88462795781150    0.64911716070765
H          -0.24541907121035   -1.56305810869549    0.47424501897585
H           1.15221711576465   -1.26294713761199    1.37612416329686
H           0.77038147195705   -2.85634584228218    0.93551963470139
