    26
        -50.45754060  Gyration_radius:  2.44551561413 Dipole_moment: 4.174
 S           0.36533605892954   -1.61027116369122    0.15654673639029
O           1.48050953485585   -1.85122987280539   -0.74236410617591
O          -0.73512302862478   -0.92403660562109   -0.53259533651066
O           0.76763701777859   -0.82481993267351    1.32546758435984
O          -0.15732214083317   -2.97967244501753    0.64259729516799
H          -0.87221575411130   -2.71663897704609    1.29373929081384
H           1.64685452340724    0.42586838563939    0.85757070921950
O          -0.19257173420036    0.63271053758984   -2.56653251561065
H          -0.53206970078842   -0.03723518422984   -1.92112012391837
O           2.15965021661776    1.19156411002151    0.48489411994995
H           3.00725279891752    1.18721207077980    0.93313147230728
O          -0.96328284205204    2.78616584605313   -1.27613237875880
H          -1.82130038697669    3.15207284322495   -1.49515770498760
H          -1.06795241251003    2.33001695433736   -0.40717961538574
O           2.14678381830903    0.26795217702748   -1.92097077528231
H           2.23571283472849    0.80597292679279   -1.07019880613095
H           1.99785190835444   -0.68025063155489   -1.56073278706510
H           1.11023677158948    0.50833994447431   -2.33278772590074
O          -1.20964705989478    1.24889672995962    0.89034460143974
H          -0.40541056691130    1.30764292542524    1.41279185138761
H          -0.46615158841410    1.51584279739948   -2.19538776527449
H          -1.12094386960534    0.40880188502474    0.38731799637786
N          -1.76679580598485   -1.75201075518031    2.27679588906157
H          -0.97910173020728   -1.13167628721217    2.43732710678368
H          -2.16242774443182   -2.02266753869035    3.16781907163508
H          -2.46550909791285   -1.23855073001407    1.75481589609578
