    26
        -50.45546732  Gyration_radius:  2.4996846086 Dipole_moment: 5.344
 S           0.59522067878161   -0.40358462682437   -2.06237668861842
O          -0.44741304814166    0.46569685119202   -1.48663992582615
O           0.16132357896660   -1.76435587750018   -2.23883862223645
O           1.83985708159035   -0.21758192337202   -1.35589665463139
O           0.81579830324817    0.16311946790206   -3.53958355998425
H           0.46173030800909   -0.55311893444988   -4.05574487273807
H           2.41725388275594    0.57102161875528    0.01842858424132
O           0.62060983005361   -0.54266544487189    2.09345902185438
H           0.80883397823313   -1.04562455357620    2.88674286079612
O          -2.86438798665177   -1.63639762674607    0.95753715913560
H          -3.26270032360571   -1.86425750457665    1.79844571263482
O           2.36524095753800    1.09395460913564    0.85013939790342
H           1.29692181366901    2.01644689814815    0.36754424163963
H           1.87181724267132    0.50356179174439    1.45575545536614
O          -0.22474450008118   -2.25406942731493    0.34688181498648
H           0.39729030297021   -1.22168655925807    1.38981663084459
H          -1.19408044371222   -2.21172034034307    0.44046855504441
H          -0.04220228071097   -2.16022021648085   -0.60691490227266
O          -1.55115174557805    0.78243052800793    0.99943814546342
H          -0.83991945516336    0.37688669764667    1.52469252648433
H          -1.33778414645915    0.56250352740064    0.07468673558797
H          -2.62345631284641   -0.69171692280796    1.00388205452111
N           0.40559823118225    2.45763520060178   -0.09799842163487
H           0.58530241858526    3.35916261796350   -0.52455230402665
H          -0.35924932405958    2.49675230426048    0.58143829482438
H           0.10429095875122    1.71782786540093   -0.82081123937345
