    26
        -50.45488106  Gyration_radius:  2.47413154995 Dipole_moment: 0.414
 S           0.42969256764213    1.12687126750762    0.68797298693826
O          -0.78541409104378    0.35048491601125    0.73345244629544
O           1.30607124163685    0.74285467947996   -0.39959074441298
O           0.10831238975042    2.61193048558239    0.59427808945039
O           1.16484135325486    1.02205590715264    2.01033929178749
O           1.71063183829911   -1.86859737652363   -0.23092359462932
H           2.59085892321120   -2.06176271432657   -0.55990623497469
H           1.55556597074753   -0.91600477576608   -0.40353412383571
O          -1.25213269810376   -1.53170813776611    2.57614455762526
H          -1.23431921755618   -0.86946567948997    1.85752714764787
H          -1.69453968403065   -1.11467887431600    3.31738568055049
O          -0.08498286633548    0.92197010586311   -2.72672480942541
H           0.63246399385518    0.88107802761075   -2.07442777072239
H          -0.58539066780089    0.08504839473413   -2.56718251030851
O          -1.26881783898770    2.84664568388840   -1.49347255814506
H          -0.50497093453733    2.74911667756249   -0.22845170526353
H          -1.04733513975198    3.66039341907203   -1.95278744862089
H          -0.89904843266849    2.09301591009754   -2.05814522960815
O           1.39685403017962   -1.42132310786667    2.39145381033049
H           1.32701360619094   -0.01002452492321    2.23799337081881
H           0.46087688911557   -1.65398702044155    2.59418820753060
H           1.55810649413507   -1.75811986047068    1.48070892085157
N          -1.16342855553582   -1.30276051874791   -1.66153021415550
H          -0.43689639539426   -1.99475210444397   -1.51740444569081
H          -2.03230535622997   -1.79688481025143   -1.82087321441196
H          -1.25170745004634   -0.79139593923685   -0.78648990561855
