    26
        -50.45538177  Gyration_radius:  2.56583946951 Dipole_moment: 4.085
 S           0.87356722923949    0.12304284326740    0.56769980491600
O           1.26170614219797    1.23011591392205   -0.30305955744824
O           1.53413894720487   -1.12147733269333    0.25899139509282
O           1.21806976939063    0.55585016563023    2.00967397352336
O          -0.60132248247314   -0.03461033050509    0.51924731396192
O          -1.08002981373925    0.16373108514310   -3.22461562544901
H          -0.92240318856762    0.74722281928947   -3.96966761886326
O          -0.26302736853363    3.23436751235066   -0.89293030355062
H           0.44134150499572    2.56752478426271   -0.68172477109868
H          -0.31507003628912    3.81796155560408   -0.13378394507074
O          -1.88903401016009    1.28994092854864   -1.10165767090501
H          -1.36471739775386    2.16849104368968   -1.07334194983347
H          -1.65224702253523    0.83163400886376   -1.99878388515152
H          -1.38585664794286    0.68698848865750   -0.36264770585244
O           1.30993662327408   -0.43830735009748   -2.35879828208588
H           1.42827425803389   -1.16570663211449   -1.73328912458061
H          -0.18460602683524   -0.17444607614775   -2.94423105104275
H           1.47969218043541    0.34212402530006   -1.80109660668344
O           1.54979996263169   -1.81936922797801    2.85547580898884
H           1.83139276213605   -1.99556266643575    1.94491441787443
H           1.39033717512720   -0.30992142971275    2.50410869991968
H           0.59943347180291   -2.09295269923796    2.87987406943619
N          -1.07291055719036   -2.18871386235777    2.38714037350062
H          -1.79562734584597   -1.93608161819232    3.04934667872301
H          -1.36986559898856   -3.03357820719289    1.91505176322109
H          -1.02097251961080   -1.44826774183325    1.68810381846387
