    26
        -50.45462890  Gyration_radius:  2.52352366583 Dipole_moment: 3.144
 S          -2.37316729323153   -0.91000986231704   -0.33075560657180
O          -2.25985935850231    0.50807863480775   -0.06793427511901
O          -1.69814044021045   -1.71218997989790    0.69025867945277
O          -1.95206441788093   -1.29538279864791   -1.66381861512589
O          -3.90781306777358   -1.26852022135728   -0.22164928274691
H          -3.89399059863908   -2.18413643734076   -0.47756288649672
H          -0.36752825054853   -1.27455202729401   -1.75365520569330
O          -0.50015014927161    1.65629882838577    1.56952180349090
H          -1.38575446076268    1.42025649483076    1.23402753754852
O           0.61920571698500   -1.17238469728553   -1.82063238167989
H           0.88696156050908   -1.70376562841577   -2.57202405528821
O           2.04431109341866   -0.98296821107893    0.47566143119695
H           2.38376087282408   -0.04847068366210    0.40124179453677
H           1.58314747727281   -1.16522201148333   -0.36731177366001
O           0.14828197598795   -0.75000539833327    2.06641611546873
H          -0.63554058720297   -1.20811913757490    1.56609645800851
H           1.00971407005696   -0.91369396391866    1.44160784232991
H          -0.06132425109595    0.25676124173500    1.99842311256064
O           0.06333909630454    1.46626536011709   -1.14013747167342
H          -0.87623358063234    1.26849526093540   -0.98471845503195
H          -0.01292304851774    1.85146806404523    0.75098817899233
H           0.40742439071195    0.66292217567025   -1.55777383729661
N           2.67805455580150    1.60858604907608    0.23994344610699
H           1.94218268820092    1.90973772132208   -0.39290706855328
H           3.56807395453406    1.84132441411292   -0.18093055023077
H           2.59003207165495    2.13922680356585    1.09762504550069
