    26
        -50.45462908  Gyration_radius:  2.52337942188 Dipole_moment: 3.144
 S           2.48010920927583    0.64211696413695    0.06319455745403
O           2.15442474432714   -0.70580937992644    0.47554264428321
O           1.71439164725268    1.64267094652268    0.80757723011612
O           2.37711337107079    0.85978418339223   -1.36683408049425
O           3.99431953089131    0.87840626149180    0.44664306614309
H           4.13798894099593    1.74163975895812    0.07486241512761
H           0.84939434001175    0.96351159695682   -1.78476416566932
O          -0.01263284791653   -1.44070289271215    1.83864907222792
H           0.94263866821515   -1.33421895430165    1.66900871879003
O          -0.11005932379541    0.93860064699631   -2.04432769625881
H          -0.16218229687798    1.37498398598105   -2.89609031681435
O          -1.97134669183049    1.21534188822232   -0.09528735025833
H          -1.33557737991420    1.22978930942442   -0.83830352448712
H          -2.39419048739421    0.31270660828946   -0.11942379007801
O          -0.00613284917588   -1.60852711592191   -0.93154395403139
H          -0.16626058482550   -0.84988907034988   -1.51197530427056
H           0.90055084279199   -1.47132398386467   -0.60720817795375
H          -0.34942812832166   -1.71350118833614    0.96828300421573
O          -0.46471869045784    1.05972032716103    1.87577141578051
H           0.44945077753270    1.36868950910736    1.49729753439551
H          -1.16190066898724    1.20213849902919    1.06764571261088
H          -0.36324192820963    0.03980914857858    1.98306124142152
N          -2.83885100350354   -1.31840843614701   -0.12592733843041
H          -2.98114148856262   -1.72186108896610    0.79167780844586
H          -2.03263350135995   -1.77181490220741   -0.54688844437109
H          -3.65008419126390   -1.53385262151626   -0.69064027791766
