    26
        -50.45462889  Gyration_radius:  2.52342872297 Dipole_moment: 3.156
 S          -1.83655923614222    1.53536210717459    0.91422139813920
O          -0.66668899982313    2.18928340243312    0.36927417643921
O          -1.48721575380918    0.55308704183348    1.94108523687071
O          -2.70685983124436    0.95652713614975   -0.09091931352296
O          -2.67725106453530    2.65288419254981    1.64899218351716
H          -3.44411107871867    2.15475250491513    1.90940629877550
H          -2.06376487139635   -0.38155146924696   -0.65251589976614
O          -1.60907628670462   -1.16779495656260   -1.05695562728501
H          -2.30070522238138   -1.68462999119965   -1.47312123350305
O           1.83984764188253    1.31972590497051    0.57820855126458
H           1.09226770060736    1.93777746662027    0.69041781999612
O           0.49345931644893   -2.24879680709025    0.26586318933365
H          -0.32860725992754   -1.96370297719098   -0.18079700084898
H           1.23165533003965   -2.04651879756980   -0.37318979350259
O           0.77728399637127   -0.49516302051561    2.00431967656707
H           1.33249170969324    0.21281524948642    1.50178290594664
H          -0.16811768334316   -0.07613725531142    2.07113025255021
H           0.66695862340366   -1.32132604461979    1.32200454176888
O           0.35154725796677    0.70266434227484   -1.68574450089478
H           1.70904021414295    0.99735719509697   -0.32929210935094
H          -0.29603545229752   -0.01685448382855   -1.71766487814678
H          -0.09405437291215    1.39988137697608   -1.17457859995438
N           2.38795067993176   -1.42764662041052   -1.43935769249769
H           3.22406355171920   -1.06556252941462   -0.99805782184961
H           1.89998996592378   -0.64953994813098   -1.87456481066335
H           2.67249111507905   -2.06689300941752   -2.16994697939471
