    26
        -50.43242821  Gyration_radius:  2.56271991435 Dipole_moment: 4.459
 S           1.33988266166615    0.29988870945552    2.08672738999980
O           1.77415548183012    0.97132316676211    0.90483558026675
O           1.15448602260776   -1.19247893000815    1.87533654682918
O           0.16080933433928    0.85380958689158    2.69831121625335
O           2.50386446407172    0.33685368224089    3.12318388735686
H           2.20522872319316   -0.13233961146528    3.89894113694029
H          -1.06707476411521    1.03150772689969    1.58649727235645
O           0.29096005226633   -0.49786532923150   -2.28910443609692
H           0.48954104265059   -0.46593742827768   -3.22561984120401
O          -1.71178247291536    0.96884043037365    0.84791903113199
H          -2.57822806692563    1.11973849904450    1.23241533209091
O           2.66302657805739   -1.07767489105865   -0.79441691280329
H           2.58318444505639   -0.31150105300470   -0.21666960790319
H           1.94029214881671   -1.00554647317463   -1.43149804566164
O          -0.59798572682635   -1.41878795085837    0.12278863354338
H           0.45266355303370   -1.38257750498701    1.11320461163420
H          -1.14234188000827   -0.62099911064314    0.27855116223322
H          -0.22065023274954   -1.32021723717786   -0.77097287917703
O           0.12821502406798    1.85966752949540   -1.10682560079285
H           0.86342901938807    1.76413992576510   -0.48252835471712
H           0.24014470342157    0.44029911998196   -1.97267674762286
H          -0.67195929619464    1.80418759644640   -0.56800389405835
N          -2.90065424362393   -0.46099767581352   -1.91257649536286
H          -2.78294100973195    0.33631531914032   -1.30005294212797
H          -2.00905737880439   -0.63237796736950   -2.36176745389822
H          -3.10720816253532   -1.26727013944868   -1.33599860917748
