    26
        -50.43242827  Gyration_radius:  2.5625261691 Dipole_moment: 4.457
 S          -0.10108475349275   -2.49504264500831    0.03548207241572
O          -1.38977696494787   -1.99566222405266   -0.59391909961453
O           0.21491254375391   -1.81598301663008    1.25007074251141
O           0.95032315446479   -2.49734338521744   -0.94711300353700
O          -0.46241474298129   -3.97119103682363    0.38281405309163
H          -0.69005288882323   -4.40585798866408   -0.43596294227484
H           1.52470965804978   -0.95679026586363   -1.21651477440763
O           1.67121161724879    0.00664953926073   -1.34000377192330
H           2.20456349562286    0.09895058973263   -2.13274735089018
O          -0.78246566828754    1.86566786258155    1.21483722208433
H          -0.92402372320456    2.55219948503136    1.86758252338749
O          -2.16483408692202   -0.52165642625478    1.98267392385914
H          -1.38643346970288   -1.08575616801897    1.92852452000099
H          -1.85512131597220    0.37523880795603    1.80072210481505
O           1.52331548677665    0.59215140230037    1.42431326220817
H           1.18522351470932   -0.29709678085005    1.61015553678444
H           1.86049199601621    0.55216862777597    0.51973779440612
H           0.11475959182348    1.48190067263285    1.38961087751019
O          -1.01821715606297    0.41530029985703   -1.08627544944046
H          -1.33579713585374   -0.96383756693209   -0.79998000459078
H          -1.16978031427668    0.96557327708755   -0.29563393150693
H          -0.05477592983344    0.43973968250866   -1.25469555586944
N           0.62962059240994    3.16713267380317   -1.36198370907457
H           0.06154291521206    3.12015119864213   -0.52460240478481
H           1.35547157141197    2.46684484047571   -1.27533756449182
H           0.03863200288089    2.90654852467180   -2.14175507060511
