    26
        -50.45614805  Gyration_radius:  2.45122919296 Dipole_moment: 3.891
 S          -1.23590625397946   -0.54305400186342   -1.29350506309608
O          -2.64993641135639   -0.73128837071498   -1.43733714270056
O          -0.66955162002228   -0.88126559491315   -0.01036080456356
O          -0.75590036247698    0.76741528897517   -1.75331178619156
O          -0.55201129009478   -1.59929664243290   -2.31435546637742
H          -1.18450384510517   -1.65472028456054   -3.02502708846438
H           0.61503511152289    1.03260760048754   -1.21574710486460
O           1.55958149878978    1.06391001045342   -0.81967034130229
H           1.89902512506328    0.05822445559184   -0.91774270188553
O          -1.20810609028536    1.69467136489093    2.27847628408126
H          -1.43445940770389    2.56886543003721    2.60019997077019
O           1.09123879942718   -1.51620423073573    1.83302004910436
H           0.63708361331900   -1.79525117483772    2.62987747231485
H           0.38666888590282   -1.35594780193882    1.16920669043320
O           1.32463930773168    1.18077936675657    1.66394122326593
H           1.39482188630749    0.22424055791538    1.86101266267153
H           1.45839718148871    1.20264477178221    0.23034998550645
H           0.39775435599482    1.41859210924061    1.90619078394992
O          -2.63336929089407    1.56197269737465    0.00844360337256
H          -3.07425308397025    0.74054571683782   -0.24600347889071
H          -1.76267508778535    1.55074827047202    1.48037736763192
H          -1.97399896836453    1.68620154434046   -0.68882931848465
N           2.10972971116234   -1.40775382392189   -0.98977858206704
H           1.23254959408432   -1.71752242637421   -1.39794198242310
H           2.14766432003517   -1.75152294516791   -0.03563759488930
H           2.88048234126824   -1.79759188770956   -1.51584764691069
