    26
        -50.46862858  Gyration_radius:  2.47494147597 Dipole_moment: 4.021
 S          -0.57641440028667    0.50091860010958   -2.11251357504676
O          -1.22151696171708   -0.55043768171541   -1.30759653751491
O           0.85383978854120    0.45004491324291   -1.97865741347577
O          -1.17390185141458    1.79801542572084   -1.87164898090007
O          -0.92424626517897    0.14764301224828   -3.62135209640520
H          -1.75393675018472    0.60090413894952   -3.72839814583660
H          -0.56490016598831    2.19682157149829   -0.43657220178857
O          -0.26333485684328    2.37851888917922    0.48737502220206
H          -0.06648546686108    3.31623887504874    0.52268123048382
O          -0.37496498497554   -1.20074390883319    2.42174033257480
H          -0.78074651490561   -1.53213812191256    3.22293062962647
O           2.62339608316124   -0.68250669419836   -0.34033570235670
H           2.22933712657267   -0.18498885187155   -1.08130321158716
H           1.45051773586485   -1.60639728394676   -0.15288899757142
O           1.60787315257417    0.71814235898088    1.68643120129568
H           2.48444486892919   -0.10235350288117    0.44447282372850
H           1.01455419410010    1.35189421042190    1.24797260622076
H           1.03050010840917    0.08470750279405    2.13357485243979
O          -2.00587439039153    0.33119760877185    1.10272624682167
H          -1.05607481719543   -0.61111545448013    1.98020401917287
H          -1.57872211984026    1.20142789578587    1.09984363111137
H          -1.89431620554687    0.00341217158563    0.18821916230537
N           0.47528349138042   -2.07677114152102   -0.00955550732049
H          -0.20905608275628   -1.52504095521878   -0.60216793313187
H           0.19526402274644   -1.95342218328861    0.98219238483372
H           0.47948126179968   -3.05397138446779   -0.27737381988854
