    26
        -50.45462878  Gyration_radius:  2.52338620188 Dipole_moment: 3.145
 S           1.07287723222571    1.36587730307673    1.88374636549216
O           0.75329426730997    2.08404520607363    0.66910381825817
O           1.90126510998045    0.18817795815361    1.62244601681276
O          -0.08588754326070    1.02491860080367    2.68589239373246
O           1.95952788408994    2.33545702810329    2.76083540207138
H           2.06274616620568    1.81557340436209    3.55022255041752
H          -0.86036331529247   -0.18769325729415    2.01516055230660
O           0.96187545155023    1.12927899523389   -1.80528172902506
H           1.14146878084440    1.72964960489736   -1.05630165166604
O          -1.38180793356757   -0.88824764830330    1.54007533010566
H          -1.93848682339005   -1.29636082025479    2.20509893583975
O          -0.16124437786998   -2.26706983183593   -0.44698484060936
H          -0.59762731888184   -1.87612552620023    0.33616714372378
H          -0.69188732850606   -1.95986116453717   -1.23326138547288
O           1.91237774198067   -0.90767274869213   -0.62012963278618
H           1.07063775513394   -1.57639741990719   -0.55186095872774
H           1.60429081680359   -0.12759103077257   -1.21880954215864
H           1.99515583625470   -0.48676632049122    0.32331380019984
O          -1.48285083488470    1.01699271682784   -0.48497487048856
H          -1.70621837418432    0.33646672499730    0.16688255936239
H          -0.87353601952778    1.60835204162809   -0.01066557828430
H           0.00094595473268    0.99891218677860   -1.74192768478549
N          -1.52416531812555   -1.16987216442593   -2.47428307875035
H          -0.95858474293786   -0.92481993097487   -3.27738695112684
H          -1.82816987575500   -0.30852101210275   -2.02868378303342
H          -2.34563319103179   -1.65670289494129   -2.80839315151752
