    26
        -50.45538172  Gyration_radius:  2.56582133645 Dipole_moment: 4.092
 S           1.00938201205786   -0.18729953733635   -0.21795757648050
O          -0.06534692654358   -0.03511982776257    0.79397813289314
O           0.86558328943918   -1.42896156793269   -0.93782479410492
O           1.02463159151217    0.99501447149967   -1.07609513174702
O           2.34351341782545   -0.18377083795143    0.55991828537115
O          -2.84393645403720    1.12224522095067   -1.49346154756765
H          -3.06186877154968    1.82141202246059   -2.11313340886944
O           0.20689560867827    3.34111048215291   -0.35697244172293
H           0.62227110780558    2.51840304267312   -0.72577513936597
H           0.85880925296264    3.73045469201084    0.22868491999716
O          -1.62183022641725    1.85725345590612    0.60313754725041
H          -2.20383611925587    1.58359067117148   -0.20767214118348
H          -0.96864691949580    1.01182937415489    0.74976044982199
H          -0.98166998953001    2.58433008470807    0.27254864526089
O          -0.83082884855855   -0.11929855210378   -2.60214087649880
H          -0.55200226999821   -0.98113640854241   -2.26454111097461
H          -2.15325489237027    0.56041830202193   -1.94295180289525
H          -0.10436980477515    0.46026381121709   -2.31033298904804
O           2.40656418528329   -2.70883257515577    0.85534569249419
H           2.52607745564898   -1.15817878944095    0.76179795773187
H           1.69853518612154   -2.78741819737718    1.54173967178270
H           1.93041257221001   -2.71696566188295    0.01119014738991
N           0.21088373441626   -2.43282995378404    2.38379153007482
H           0.00334026041063   -1.57322090593810    1.87624385837451
H           0.24619640386120   -2.20681429861997    3.36979442752060
H          -0.56550481566545   -3.06647850710997    2.24092768447556
