    26
        -50.46656059  Gyration_radius:  2.45769781782 Dipole_moment: 4.199
 S           0.38696703926283    0.73241354854703    1.95823335775251
O           0.47086354498594   -0.68158585485634    2.26569884162842
O          -0.64219973580724    1.04049784145536    0.97682958428099
O           1.67325726210725    1.31031598648304    1.61826833646139
O          -0.08642781775278    1.45031465104558    3.29079502625364
H           0.62337851864576    1.24457643667005    3.88975359235399
H           2.21340376215619    1.04627883927519    0.14733092494246
O           2.46090999326953    0.81862386331695   -0.78888518736914
H           3.38105845999244    1.06796015885195   -0.88730965542177
O          -2.02924032025110   -1.18715930416903    1.29878700682868
H          -1.71824912407074   -0.27124603208520    1.16010333754876
O          -1.09106019967821   -2.09834776400368   -0.99041118851694
H          -0.13312948300504   -2.05663094123459   -0.73682442422906
H          -1.56750576028478   -1.89304678658057   -0.14433915248987
O           0.02786897112221    1.82237351966872   -1.43336531534778
H           0.96377627711746    1.55067333233102   -1.42970956665598
H          -0.85425144266217    0.74748599603709   -2.05267309507518
H          -0.25175467375021    1.71191255386891   -0.49628544019891
O           1.33039208397484   -1.63138183033213   -0.08849581070108
H           1.10411492419584   -1.37580300802969    0.82657674310904
H          -1.38134572942329   -1.53462744449570    1.92436813352815
H           1.81317745123683   -0.88079722685004   -0.46543356585281
N          -1.52117430682592   -0.02902732933012   -2.40506091725526
H          -1.32497675867086   -0.96314475938895   -1.79986804672073
H          -1.36898901764736   -0.20777151261628   -3.39175796664067
H          -2.47886393824773    0.26714308640912   -2.24632557220872
