    26
        -50.46656048  Gyration_radius:  2.45799270989 Dipole_moment: 4.202
 S          -1.48437999817570    0.80038109930751    1.29667324513842
O          -0.50579861490586    0.47113151601884    2.31407629813250
O          -1.53887584722708   -0.17908802117858    0.22195789359148
O          -1.34983081742664    2.15904491954970    0.80696284772946
O          -2.90287715047051    0.71773344057477    2.00118370985002
H          -2.82754880250674    1.38215199458475    2.67776286911492
H          -0.19910923036992    2.43210153598821   -0.25461112452035
O           0.55087659673853    2.49589048328715   -0.90494664176243
H           0.70062225061477    3.43212100304465   -1.04489803419842
O          -0.39479314677117   -2.14957327523910    1.56280795717256
H          -0.94438238029555   -1.58426262411482    0.98556503035705
O           1.82709177905266   -1.78793768964137    0.19078030741711
H           1.06760214747874   -2.08482768763521    0.75659365796449
H           1.96472541750430   -0.84320960426964    0.45954329812686
O           1.75287392736265    0.74016783888486    0.89650204058450
H           0.99864758102330    0.70277347965058    1.51581689671294
H          -0.24361200770113   -1.58107167394816    2.32815999113065
H           1.51232438036556    1.38941255683719    0.21882506144367
O          -0.67555691547332    0.43921864926468   -2.17400168690361
H          -1.16944477238145    0.23988175492879   -1.34637002088117
H          -0.16663797250398    1.24036908896857   -1.95323752337110
H           0.22018702753088   -0.79135382744967   -2.19772647768250
N           0.80920544138508   -1.69763091779698   -2.13806049924777
H           0.19139593331951   -2.49586890252184   -2.24419063433584
H           1.28645659110043   -1.74064985480021   -1.11441448278990
H           1.52083857272229   -1.70690528233810   -2.86075399882522
