    26
        -50.43251207  Gyration_radius:  2.56564125704 Dipole_moment: 4.001
 S           1.41982996965480    1.80406985263053   -0.96630903577264
O           0.94945192482157    2.35511811696926    0.36779546422557
O           0.36262230645227    1.21477386583677   -1.72235314211624
O           2.56203750417954    0.95217539252474   -0.76295507611317
O           1.88246745857892    3.09701181769189   -1.70341504431333
H           2.55013615833941    3.50634343896296   -1.15795343276742
H           2.10912561155675   -0.52244316069426   -0.14749160492235
O           1.70684833698350   -1.29281125827681    0.31197500328723
H           2.43839338083885   -1.80551078320588    0.66354956504157
O          -2.20658823020520   -0.36598362718159    0.51754653290166
H          -3.11140332029825   -0.67840955205542    0.48352374409017
O          -1.98266989368174    2.27028549113483   -0.59544042119639
H          -1.24340308713392    2.03446069019451   -1.16549510012815
H          -2.21762445496773    1.46147880533689   -0.12265720018262
O           0.09154876247195    0.42900702770264    1.68614591435363
H           0.63036692311891   -0.31082518590943    1.34320726512963
H           0.54144410729123    1.59810824774504    0.98230958409877
H          -0.83124328378677    0.24278505078607    1.42503395655065
O          -0.59843604939751   -1.32639602124892   -1.35575438730290
H           0.19247118035868   -1.61393752374392   -0.87966653728274
H          -1.71978622203746   -0.79414860131900   -0.23137581437504
H          -0.35545159766316   -0.48032380848277   -1.76110756057159
N          -0.79433996657399   -3.15868094475163    1.37385960564986
H          -1.16658494854795   -3.41726631862063    0.46823708811413
H           0.14340309480514   -2.80896872260919    1.22403435084901
H          -1.35261566510860   -2.38991229935782    1.72475627275848
