    26
        -50.44582477  Gyration_radius:  2.68654807086 Dipole_moment: 3.271
 S          -1.96286784988354    1.60505820259358   -0.28257171309683
O          -0.94297180196772    1.99399702250694    0.66572033222252
O          -2.98876699255823    0.75345094421684    0.34274646790387
O          -1.43761001544089    1.00026629815227   -1.48868659798770
O          -2.71498165290433    2.92403638047104   -0.71297744106550
H          -3.31765860250506    2.61117417506125   -1.38045291275974
H          -0.66239047213929   -0.34766653939631   -0.95230867051917
O          -0.23329906001017   -1.06282694236348   -0.42879532509144
H           0.39450247567885   -1.53488566053124   -1.05530062871237
O          -0.48704215080846    0.52257837823318    2.81812535805201
H          -0.77581245578454    1.26348692963004    2.24204367474671
O           3.55546350160767   -0.23246919931171   -0.71552743593919
H           2.88256293650289    0.15811090435514   -0.12609451453176
H           4.36311861787367   -0.28112306756676   -0.20277086426689
O          -1.87132811855657   -1.10794827319515    1.49823100719218
H          -1.31357905075743   -0.53918698253342    2.18484245177742
H          -2.47903756701791   -0.35534719274272    1.03263344216700
H          -1.22036863145028   -1.33377961926931    0.75365296876480
O           1.45426003129573    0.55501953543028    0.88488445183318
H           0.43508804976544    0.37710794353865    2.54126732888304
H           0.92443318269407   -0.13215304037338    0.42292860232222
H           0.98140182886906    1.37600563078533    0.69124746168834
N           1.63021031614758   -2.01880454591804   -2.03091107310382
H           1.91511372442760   -2.98973752305547   -2.02632672413698
H           2.40995993995223   -1.45970260745147   -1.68501859233267
H           1.46159980704680   -1.74466116125765   -2.99058104407989
