    26
        -50.44582472  Gyration_radius:  2.68631762792 Dipole_moment: 3.272
 S          -0.19430040949489    2.52509696011492   -0.30553770760451
O           1.24540265551239    2.82913094615398   -0.24536162573702
O          -0.67824041830237    1.98801849515594    0.94672749436489
O          -0.51304342986709    1.70355892310082   -1.45430058307644
O          -0.91042196222654    3.91579422410603   -0.51431280131333
H          -0.60529521179318    4.17948179054761   -1.37686194849662
H           0.25342662961208    0.28023478528168   -1.15010281230639
O           0.74299516069686   -0.48204557464812   -0.76433611668432
H           0.49540773472888   -1.28559771851592   -1.31452603898466
O           0.98535967358695    0.78737773153440    2.61957826357948
H           0.37870331049943    1.45384143016330    2.22985032300035
O          -2.08943615749277   -2.96581154322268    0.20015240491471
H          -1.77150542723789   -2.17823994481515    0.68114820358921
H          -2.30197489076284   -3.61857555897552    0.86822638067241
O          -0.87259130468142   -0.77931731477908    1.35509226894130
H          -1.28638595932015    0.09244105718391    1.29200036940009
H          -0.25315142741954   -0.79768905577678    0.59202180958490
H           0.47015327869175   -0.03693178693120    2.56197805227994
O           2.43853390299741    0.83898860462403    0.56937940012955
H           2.04322712010068    1.76677751579652    0.20078766841743
H           1.97812613786167    0.76858235304387    1.51217481327974
H           1.95194193290281    0.16487319372148   -0.01192250368032
N          -0.21795443394297   -2.58534756732292   -2.03111431048193
H          -0.92874148349506   -2.84554616269722   -1.34751278735292
H           0.33714967965722   -3.40678428212626   -2.23353152797068
H          -0.69738470076568   -2.31231153066626   -2.87969666843774
