    26
        -50.45524967  Gyration_radius:  2.46674101731 Dipole_moment: 4.685
 S          -1.56791302918906   -1.16808108529939   -0.04326581684561
O          -2.84222944777477   -0.61050496737933   -0.39886493279564
O          -0.99143720644615   -0.59763678326812    1.16528337591043
O          -0.59197638342740   -1.20518194324564   -1.12820307260276
O          -1.82740677597838   -2.71106256602731    0.28635159085324
H          -2.71264378981149   -2.69149856270611    0.63509666118678
H           0.00269425722249    0.18707838716107   -1.67557404223904
O           0.34940374144922    1.07377233249731   -1.94153898698614
H           0.48132296588577    1.04381192809018   -2.89000619922900
O          -0.16383221647674    2.81939872308355    1.50746735349457
H          -0.34794399751211    3.75946911550600    1.51735182729728
O           1.48606724596886   -0.52600268048318    1.48644128434531
H           0.45583365378390   -0.53035583847027    1.47695503139998
H           1.72166916773114   -1.31402965450849    0.83219262865544
O           1.84470841268576    1.63222054336355    0.28043508212070
H           1.72978602832860    0.38889872354163    1.00584025687143
H           1.41710976793339    1.49468423031306   -0.58508638361128
H           1.20053210591782    2.17944212954661    0.79597556751047
O          -1.83688567216154    1.89967296971817   -0.35988638374600
H          -2.31986047797814    1.05827471372501   -0.31027974754384
H          -0.87230702288296    2.41086995155713    0.95894256219671
H          -1.17502971353594    1.79063024640377   -1.05685168052736
N           1.70695082914379   -2.42265796484761   -0.19641941677676
H           0.84413727714181   -2.13749026439069   -0.67342788855823
H           1.55670017745654   -3.34578429297114    0.18898413760332
H           2.45255011255686   -2.47793740092785   -0.87791279801461
