    26
        -50.45334096  Gyration_radius:  2.59344383464 Dipole_moment: 3.807
 S          -0.40142382188770   -1.30957372736126   -0.57247753201672
O          -0.66371210448991   -0.09094642497370   -1.45518036817406
O          -0.93747578866707   -1.12423993319511    0.74476153570185
O           1.01310284054874   -1.61347377169408   -0.59674682375771
O          -1.17554216122341   -2.41971592796875   -1.29414016657239
H          -0.67613101540426   -2.51097538641942   -2.18212124129553
H           1.56837507294690   -1.48392766244134    1.03121878081545
O           1.37039321713989    1.33191887530384    1.90639997367694
H           2.19275671448543    1.73367559745725    2.19052955381195
O          -1.87984493643469    3.02926619357997    0.51468980717678
H          -1.91194577796674    3.85967655051770    0.99165151786666
O           1.57789007393042   -1.28746212015594    1.98805272047743
H           0.69971824516211   -1.54185946700784    2.28905793649689
H           1.50646551560680    0.34851021481948    1.96169263967387
O          -1.41088412197800    1.09881197760899    2.27819874391861
H          -1.44620949573378    0.25995376693613    1.79113121857082
H          -0.46684208579925    1.27491184056461    2.39925790250444
H          -1.88384818131360    2.31526190284423    1.19752869259711
O           0.32749702779137    1.98643729716021   -0.51534542377537
H           0.76114521375481    1.74932162125990    0.33184406733165
H          -0.22327779654412    0.80331270204358   -1.08299433723789
H          -0.49018750750167    2.48248354675933   -0.26106740130988
N           0.42486781957082   -2.30324856306102   -3.29191070890613
H           0.21993276656877   -1.48410463852675   -3.84869156913783
H           0.75901885062141   -3.04134115914031   -3.89733531926929
H           1.14616145682637   -2.06267332486858   -2.61800417912314
