    26
        -50.45383250  Gyration_radius:  2.48095095777 Dipole_moment: 3.431
 S           0.57212545452390   -2.07069307804247    0.33459242422543
O           1.99473233052384   -1.91862518591062    0.11487374598904
O          -0.23528881101820   -1.63483601893841   -0.79509720232811
O           0.14083394801409   -1.45403994812101    1.58242426462489
O           0.31142495973633   -3.62375079369702    0.47544193277041
H           1.12962667171399   -3.93656391832752    0.84683825439990
H           0.62130502693680    0.09436953101981    1.70360441641953
O           0.62968913582242    0.21921851350313   -2.26386241115093
H           0.22551567715836   -0.58709242218124   -1.78437185628311
O           0.95256002849339    1.02643668735531    1.70717934629933
H           1.44370563538286    1.12517485838284    2.52482188829119
O          -0.98299735785736    2.10445925362211   -1.97372716053949
H          -0.52230992087178    2.94509093581875   -1.99127983397193
H          -1.32321757691905    1.96730752839807   -1.00026752312020
O           2.39335870205486    0.59174156926351   -0.52622822015639
H           2.47690339209225   -0.36632392351194   -0.31402861254850
H           1.43307679754819    0.47077437976658   -1.63324495653046
H           1.93341723215083    0.96523751101343    0.25430762120711
O          -2.40052757730271   -1.00992124263828    0.79066225740387
H          -0.08127620531844    1.00671324712805   -2.20055847941752
H          -2.22683476751681   -1.36887171047647   -0.08528108746603
H          -1.58892431263755   -1.20973370876489    1.28575448023887
N          -1.67331648651171    1.73611329856190    0.47250690573729
H          -2.31913139962990    2.39390251611816    0.88942637550966
H          -0.82057878747816    1.73307592737532    1.02480308089704
H          -2.08387176909110    0.80083618328771    0.56071034947144
