    26
        -50.46725503  Gyration_radius:  2.51584420517 Dipole_moment: 2.191
 S          -1.65527793392675    1.37997843725961    0.25077224740940
O          -1.30884969565806    0.38035834184025   -0.76254625140896
O          -1.16902997992955    2.69393875975337   -0.06671378457065
O          -1.29691589032388    0.91836568858533    1.58224977426305
O          -3.24309457698737    1.47469939909011    0.21673003143573
H          -3.38456609197461    2.40893392941655    0.33078453550392
H          -1.31967592073420   -0.68923857381590    1.96230832363440
O           1.33980378906229    0.84888341261111    0.99596582468904
H           0.44175221959001    1.00578412143229    1.33288699094309
O          -1.22798957631544   -1.62887014994208    2.24113648586617
H          -1.52731360310819   -1.65736078249199    3.15098954053436
O           2.19330033898417   -0.52674675230799   -2.40301992302593
H           2.99922860157560   -0.48277311057468   -1.88355837016305
H           1.78363584710606    0.35463988697557   -2.33699198177860
O           0.81754899683920    1.67747006004399   -1.63614429845930
H          -0.03179951234695    1.22649510357004   -1.44508427357095
H           0.61683038679596    2.60751376605571   -1.49447279108122
H           1.35066165669413    1.22052712045897    0.10070922292712
O           1.30348722356999   -1.80626104706138    1.39387988846662
H           1.51858943599702   -0.84846473793844    1.38644417642821
H           0.45572399153938   -1.86691936750479    1.88385264907513
H           0.72174982611490   -1.90284759663298   -0.00414315469628
N           0.26041207617381   -1.76115123160232   -0.97710060526697
H           0.99416868233226   -1.41516735308012   -1.63919414262360
H          -0.45303786584086   -1.00168431585136   -0.86661237724175
H          -0.17934241519956   -2.61010300827458   -1.31312774730036
