    26
        -50.45034908  Gyration_radius:  2.65653442741 Dipole_moment: 4.684
 S          -0.20488451833877    1.63075817395100   -0.98375209291451
O          -0.88361116690703    1.63517103664166    0.30936392971966
O          -0.76813898486433    0.61624166772964   -1.87702044264529
O           1.23296766696250    1.44711075619253   -0.81219872884290
O          -0.44871332402200    2.99975795260328   -1.67452542234387
H          -0.05814249635847    3.63960417143554   -1.02768738556914
H           1.54350645204177   -0.02601525599868   -0.35535781119528
O           1.69181432458052   -0.93058824783728    0.04349482715577
H           2.61969327741789   -0.95865029154362    0.28236024827371
O          -1.66173878467087   -1.44774853564930   -0.87798064593591
H          -1.36654500467851   -0.55905973317270   -1.39225452245632
O          -0.62310067708908   -3.54601435113381    1.52627999227554
H          -0.72900449704579   -2.62459853305418    1.80003026490989
H          -1.44202138148775   -3.99645892993059    1.73743373289587
O           0.29360899521274   -3.02714522611139   -0.99771087660518
H           0.11145556844831   -3.47643819646734   -0.15085881350634
H          -0.92419030484744   -2.15828877435555   -1.10054843164407
H           0.96802415055055   -2.35224468711907   -0.79111860756886
O          -0.68160490756605   -0.71370455514457    1.35927171799960
H          -0.83832222454742    0.24369263715066    1.14620587063731
H          -1.44402669897287   -1.20298449060251    0.09598430652807
H           0.25271553405319   -0.84930669518078    1.10615850292778
N           0.72921607594611    3.99872167024454    0.43052182961123
H           0.06635701355632    3.47809700812021    0.99499527486173
H           1.05335873921371    4.80254214936574    0.95364804271041
H           1.51132716341070    3.37754925986606    0.25526523071835
