    26
        -50.45034909  Gyration_radius:  2.65648489477 Dipole_moment: 4.682
 S          -1.08446593725279   -0.64419360771355   -1.44123226751601
O          -1.85171239922518    0.48404836076175   -0.90939958271230
O          -0.82503995401279   -1.64350203932360   -0.40829532844286
O           0.16318618887693   -0.19625690048366   -2.05219505022153
O          -1.96947317046309   -1.28935160341686   -2.54189264128918
H          -1.40809396030614   -2.04208384230478   -2.85560701245621
H           0.97878195558982    0.68809056664247   -1.03815477367901
O           1.51839247606972    1.14585686357839   -0.33209494762462
H           2.38308428498003    1.28929485107562   -0.72009108970706
O          -1.51577106394026    1.11453285390866    1.44563280848419
H          -1.78040770235350    0.86869558141069    0.44022969373232
O           1.16524736713434    1.46818415545876    3.43227294224303
H           1.06196407703963    0.59480174170122    3.03016626261409
H           0.75333480165605    1.42873507991153    4.29649915238761
O           0.23848079976686    2.91297369396824    1.30333194749525
H          -0.93798223088166    1.98629946377754    1.37755519956655
H           0.70211033396270    2.66571561158264    2.12563208326451
H           0.74514368582267    2.48906085385497    0.58460987796570
O           0.44292492454906   -0.51637620865062    1.53645929747076
H          -0.80870003480083    0.39812303527676    1.65255657220918
H          -0.00132496567062   -1.13018831146344    0.89424341113538
H           1.03668858346416    0.01151345809622    0.96710632127411
N           0.00780127798751   -2.97448401785467   -2.80367750493153
H          -0.05461887504325   -3.13600524743944   -1.80412627618662
H           0.62970224522666   -2.18372591053076   -2.93108316229011
H           0.41074727181946   -3.78975847187296   -3.24844593281443
