    26
        -50.45034907  Gyration_radius:  2.65658664931 Dipole_moment: 4.682
 S          -1.73433894430194   -0.79481931576913   -0.16855821931700
O          -1.40870282409396   -0.97353546495960    1.24795692090258
O          -0.72207024694618   -1.40447283636143   -1.02678895129388
O          -1.91027954155438    0.61603632615634   -0.49860158945090
O          -3.08366173350859   -1.52786477340241   -0.39853949519942
H          -3.24654939370151   -1.38065927299482   -1.36399112853418
H          -0.65289492691796    1.44301559975278   -0.03922893626848
O           0.20624101498032    1.91345102755063    0.16019427530016
H           0.10997439400290    2.79379539236980   -0.20658343485044
O           0.96370606227900   -1.04847556628328    1.89773193800458
H          -0.08528235481409   -1.10154647652707    1.70203967026191
O           3.69238186052869    0.72111691903847    1.06875101207144
H           3.23543278798978    0.29673255860481    0.32968648928969
H           4.38540768541761    0.12221786507832    1.35015067813325
O           1.45562357842518    1.34095979125617    2.51511911501567
H           1.11926051260346   -0.10950236147358    2.33639776001476
H           2.36723246430935    1.34873878637643    2.16706793389307
H           0.90695888675755    1.73191825767468    1.80863112539939
O           1.57077787052304   -0.35354242858139   -0.47985690970960
H           0.79395374885401   -0.84744009509594   -0.85291103291696
H           1.23758034999235    0.56211482557147   -0.40248349655554
H           1.34218299789554   -0.91420233532918    0.95184466986603
N          -2.80879128601597   -0.74674419012898   -2.87476009882135
H          -1.88542284611591   -1.16650114749079   -2.85828317240572
H          -2.70129626882364    0.20312405952920   -2.53645025847912
H          -3.14742386778213   -0.72391513454768   -3.82853486435613
