    26
        -50.45034906  Gyration_radius:  2.65648134693 Dipole_moment: 4.683
 S          -0.43518912255836   -1.26180059596688    1.37336502752618
O          -0.25751375875268   -1.86546947638837    0.05540742151312
O          -1.56821541014540   -0.33410167354778    1.38554896254077
O           0.79266486591120   -0.60517714250243    1.81120466431877
O          -0.78380768807853   -2.38434554549321    2.38788819862526
H           0.00626262712818   -2.97839787444112    2.33131826618546
H           1.04566524492915    0.69677939138158    0.96469023519842
O          -2.08870202161707    0.89574965448142   -0.68153109575793
H          -1.98427709294000    0.35484752081887    0.23386653169163
O           1.23295360372041    1.44869008119464    0.33320123923901
H           2.11309902907074    1.75798936195438    0.55337794351915
O          -0.26244285439046    2.50749926665958   -2.98968896879387
H          -0.03477371008502    1.57670169113379   -2.85947805092348
H          -0.88569062302745    2.54396531979481   -3.71658088598506
O           0.08759195369742    0.01512269941156   -1.67789207014692
H          -1.32333999748910    0.50031108374022   -1.24173709314519
H           0.67828678671309    0.55358009483233   -1.11526579403115
H           0.00720550335849   -0.83662385941069   -1.17319421599056
O          -0.84675749609558    3.06294622962368   -0.37646718062964
H          -1.73978659158135    1.86249920115596   -0.47646540973467
H          -0.06808537797267    2.66145675090084    0.05422832006845
H          -0.59681615247137    3.16786328375233   -1.31389541956156
N           1.52472205449310   -3.39073199687082    1.69898858348925
H           1.95164907710355   -2.49924967001575    1.92546469105514
H           1.21555700648278   -3.32759732750642    0.73484780526659
H           2.21974015462016   -4.12250645868800    1.77879829444589
