    26
        -50.45234088  Gyration_radius:  2.45886142639 Dipole_moment: 5.682
 S          -1.06086071457165    1.14603966551043   -1.52409667129108
O          -2.43547185931009    0.87151135317563   -0.92283903289777
O          -0.28799870177316    1.87853861694083   -0.39123776604169
O          -0.37836813866298   -0.11927957258136   -1.74756524443480
O          -1.16443308859652    1.99031938298669   -2.65592468821177
O           0.27574210182142   -2.02805979395772    1.02569186701136
H           0.32995861455311   -2.80075625771635    1.58925683922006
O           2.25788560383793   -0.12748841210634   -1.89404787557044
H           1.27924791499503   -0.10025454943395   -1.97603566875915
H           2.59665518148121    0.54175474308918   -2.48982950902533
O           1.50431941704374    0.38158094416414    0.66462236318523
H           2.02499499381403    0.19735537989766   -0.14104200203464
H           0.40152425821324    1.27932691627124    0.05463801945979
H           1.09693902485912   -0.47099710232821    0.90672608795616
O          -1.90307584725678   -0.35955496426618    1.20540402739532
H          -1.19821813264015   -1.02195293479050    1.08889313287095
H          -1.51473819559640    0.34716403289950    1.78361287875871
H          -2.28257097566685    0.32450456721575   -0.06377588710965
O           0.57817827709932   -2.62615614366803   -1.51672550734149
H           0.00900381880855   -1.88605596524837   -1.78538681960109
H           1.46747340718685   -2.36025267004884   -1.77255465137556
H           0.37187148396907   -2.34636978195066    0.08925584908277
N          -0.64447390109396    1.60763111808279    2.55321790730001
H           0.34247747178009    1.37910116562230    2.53448032917315
H          -0.88082652817490    1.93055369741188    3.48255559117533
H          -0.78523546612470    2.37179657483293    1.90270645110904
