    26
        -50.45450922  Gyration_radius:  2.45149347256 Dipole_moment: 5.287
 S          -0.56365635788908    1.89369018045459   -0.67359846247769
O           0.54527460589882    0.96371568917551   -0.78687406253303
O          -1.75621434031214    1.18404189798377   -0.01053521688026
O          -1.01161078558046    2.46737480195493   -1.89059493732936
O          -0.15538066936206    2.98371722028124    0.34098919493495
H           0.68022880141857    2.68469970712478    0.81369757470761
H          -0.60006028836884    0.04634244027761   -2.18384520191408
O          -0.87425153911438   -2.41451777635494   -0.48354092222876
H          -1.47529276615449   -3.15339894629496   -0.58663975380084
O           1.49497844928025   -0.48656125437210    2.28037509076987
H           2.01310839229765   -0.96104707693076    2.93143228857787
O           2.01777896955618    2.00116595591906    1.31364185285326
H           1.80696110548247    1.19406231859122    1.82491175467668
H           2.30532538635376    1.68563877393416    0.45046057512424
O           1.68687777659920   -1.39841851120013   -0.15209204260898
H           1.68066627308763   -0.90600043070909    1.39170765313166
H           0.94392791172278   -2.00410975612230   -0.29388295584593
H           1.38766964089088   -0.55593254035744   -0.53668476902997
O          -1.14147583222203   -0.67365068438684    1.58488527404638
H          -0.25366696245660   -0.54892787254307    1.96725932456392
H          -1.50228675087742    0.47662285131013    0.69157850122627
H          -1.06146059152966   -1.39603117485056    0.92742353432817
N          -1.39570609716130   -0.56597348628039   -2.33424256758660
H          -1.08840462071719   -1.76473730163855   -1.21404174827759
H          -1.47843121912836   -0.72067559310455   -3.33224087907967
H          -2.20489848133658   -0.03108946200580   -2.03954911940227
