    26
        -50.45450933  Gyration_radius:  2.45161908646 Dipole_moment: 5.294
 S          -0.42410448885214   -1.55439271175222   -1.32814221182359
O          -1.71445497681265   -0.81057424749408   -0.94462806918711
O           0.71904931214681   -0.84149549676557   -0.78754299490089
O          -0.42298251292714   -1.74210153799359   -2.73374618151045
O          -0.52533607104251   -2.90397342679823   -0.58460693960853
H           0.08940595299963   -2.87817802544387    0.21076129752696
H           0.26917184558050    0.56352309489056   -2.17629189432382
O           0.55067515922456   -0.32904621690928    2.69289243014929
H           0.82046674043304   -0.11895579386759    3.58762396023620
O          -0.41324560046867    2.58015286751911   -0.05671430521257
H          -0.86029185681174    3.42241899514195   -0.14901238303200
O           1.18788575719142   -2.58350104455905    1.31173197652994
H           0.86797379686583   -1.88878000940235    1.92195541191652
H           1.81062406755307   -2.13907244551240    0.72693707851468
O           1.73187187300910    1.06242483865706    0.83479224761514
H           1.15302994384383    1.80983054108199    0.62179995430324
H           1.09596737875914    0.24064305246149    2.07781829969341
H           1.53008352567694    0.39949253990375    0.15132047741126
O          -1.59671695593593    0.49144341187046    1.21521912444158
H          -1.68711331759329   -0.33943608633762   -0.03062652849106
H          -0.93529941371166    0.12224405255393    1.82859275699287
H          -1.21132929046210    1.31789261587794    0.85623508463855
N          -0.35257781447913    1.33060367362122   -2.41201145408995
H          -1.25664373419910    0.90213583395254   -2.57567053813197
H          -0.03621678378108    1.72176867444686   -3.29155880013637
H          -0.38989254619790    2.16493285094521   -0.96712776962428
