    26
        -50.47250300  Gyration_radius:  2.48733725019 Dipole_moment: 2.878
 S           1.47702077448542   -0.34531882087696   -1.68577793385382
O           0.30869518584174   -0.85388361863217   -2.39394267148551
O           1.49302315732381   -0.76168632673210   -0.29648003759919
O           1.64053910550920    1.08498623653624   -1.86242934277991
O           2.74065245823092   -1.01987713632398   -2.36246737757182
H           2.74690459281359   -0.58655106451608   -3.20901896535001
H           0.56951149894189    1.93574138859190   -1.04551956004778
O          -0.06547066636223    2.45088267258670   -0.48174347353880
H          -0.16227267944782    3.30444382011833   -0.90651286831562
O          -0.72262838506054    0.03961749542909    2.65830299156703
H          -0.74105531999922    0.20293174070128    3.60141399561056
O          -0.14255508010766   -2.25543116871004    1.24689500128280
H           0.63615289136826   -1.89904471733600    0.78060486020047
H          -0.36621578769942   -1.57784861061694    1.91098796863873
O           1.34541837203902    1.16716037231584    1.54607880067756
H           1.57787040807286    0.46339386223248    0.90743263696688
H           0.95768350110772    1.86815422006474    1.00183228756355
H           0.10434080352418    0.48375067452785    2.30992392264865
O          -2.12593599832633    0.92192653241891    0.45820153739253
H          -1.95379607655414   -0.44899936422476   -0.34086420855681
H          -1.78760909288787    0.67312802120298    1.33721496618785
H          -1.46336724636330    1.53845231825713    0.09281280034531
N          -1.63136530634660   -1.38147557869943   -0.73458583161305
H          -2.40168100403887   -1.91390343380090   -1.12184974333239
H          -1.14411311906056   -1.89680283289836    0.05952613724341
H          -0.88974698690033   -1.19374668172713   -1.47003590223257
