    26
        -50.45253311  Gyration_radius:  2.55227936002 Dipole_moment: 6.116
 S          -1.55677264260297   -0.01833993122091    0.33726557484849
O          -1.86042475651310    1.31913297726481    0.72896157208975
O          -0.45003148609085   -0.62212061930239    1.21267457763400
O          -1.15361320135050   -0.14328867167326   -1.05446800136727
O          -2.74945025197507   -0.92497244458003    0.61052599918483
H          -2.45491573400084   -1.88887059067917    0.44920789255780
H          -0.08440148939522    1.02740989243279   -1.51718734114822
O           0.68012108133991    1.63120315501297   -1.65899722715954
H           0.69972635768773    1.83558744706838   -2.59533951820539
O           2.13134774143327    2.11909949659552    2.02379027659424
H           2.85004013110521    2.75224034276474    2.04472300199943
O          -1.95157883201436   -3.27458168180647    0.06087552450616
H          -2.47261223427064   -3.59104530729607   -0.68053981821891
H          -1.02221165283900   -3.11682882341947   -0.28547932510856
O           1.80938700534933    0.10317065179556    0.35438332721282
H           2.06481883956007    0.75717881267827    1.05129772445093
H           0.49317853334547   -0.34995290803151    0.89142508936627
H           1.60945401337766    0.63838779379063   -0.43236360908414
O           0.13365148895635    3.17195979168029    0.62654039137580
H           1.35471595955951    2.59221121420004    1.63620494135741
H           0.38617417044731    2.88468225290405   -0.26306612430387
H          -0.68284992940363    2.68172858852221    0.81931183932145
N           0.36470261058447   -2.56386986728944   -0.99325776862368
H          -0.02968314745504   -1.66317095742890   -1.25811263918023
H           0.80819252582197   -2.97315258909026   -1.80578913353510
H           1.08303490936436   -2.38379802486264   -0.30258720654066
