    26
        -50.45352411  Gyration_radius:  2.57381846407 Dipole_moment: 4.227
 S          -0.32121738869762   -1.03614346576662    0.90344972755870
O          -0.29329105251051   -1.04295147036534   -0.53872219111187
O          -1.70818551215067   -0.72380480156478    1.41492581688034
O           0.65277781910208   -0.11222082952863    1.45961427983961
O          -0.05412974237136   -2.43523397756918    1.45161110713489
H           0.96484570263529   -2.49341601337244    1.58489588941075
H           0.50425389271233    1.43047410136410    0.93873401219855
O          -2.93019774754366    1.66105220271300   -1.68518487259426
H          -3.19396794957977    2.46437497476840   -2.13604461296326
O           0.26841614855461    2.32818964670268    0.60454306252773
H           0.72012389680933    2.95671414687355    1.17055065946440
O           2.44637934010109   -2.19865089065367    1.57862418557096
H           2.60043531733221   -2.19305413837500    0.59097231172552
H           2.35040622955487   -1.27200494148356    1.83022624152584
O          -0.31107563859569    1.26414380495507   -1.95175726141815
H           0.03406111014043    1.82775798123837   -1.24666643101833
H          -0.28868064778470    0.36053036472236   -1.58938541966023
H          -1.99641034567408    1.48068696774819   -1.94999567826075
O          -2.33634886137934    1.61648783114512    0.88399168012256
H          -2.03251552612046    0.27791067062220    1.20805370033636
H          -1.46144178825428    2.04791697997412    0.80548293475029
H          -2.71257049830960    1.60475594197414   -0.03385745198323
N           2.37268789979657   -1.99018435788650   -1.06768396728855
H           1.40207133798037   -1.67753340174193   -1.05672418414406
H           2.41028444543200   -2.84981592900523   -1.60101420715158
H           2.91328957971350   -1.29598138868451   -1.56863931997460
