    26
        -50.45352425  Gyration_radius:  2.57364047848 Dipole_moment: 4.240
 S           0.48011151783578   -0.96364657122066    0.91458508097164
O          -0.54965344864130   -1.07746860492292   -0.08915128758190
O          -0.11087028415502   -0.59196354118647    2.25448127976281
O           1.51221732010533   -0.01703806845922    0.52678625071791
O           1.12171219030309   -2.32264291059315    1.18102163568419
H           1.91780566158161   -2.38779652239692    0.53198258812399
H           0.96728633443260    1.48500557261209    0.18211947756866
O           0.52513112924397    2.35969850414359    0.06944209623351
H           1.22016027922905    3.02011485056957    0.08462349414943
O          -3.30039804024985    1.58288879095492    0.88797015108407
H          -3.84234654136419    2.35563613933871    0.72260957487354
O           2.91475364415080   -2.11852041572770   -0.57076615543676
H           2.30137921361473   -2.18589077228156   -1.35716303404321
H           2.99486668060708   -1.17483662523971   -0.38601044159948
O          -1.02030896177754    1.71531002361399    2.20636968222968
H          -0.49757200662585    2.12455192390204    1.48732336782867
H          -1.94606302868881    1.64367097498950    1.85701594135361
H          -0.52273462558751    0.39840790998005    2.28834797410753
O          -1.68910911369986    1.12046882212368   -1.18018507372460
H          -0.96281474350493    1.72813048802068   -0.98726250317082
H          -1.37193040789721    0.24537046350273   -0.89391309605766
H          -2.84787987719203    1.36669305840436    0.03757093651431
N           0.93131962569061   -2.09700999668691   -2.33646121124312
H           0.26122568684286   -1.77143123520115   -1.64008182314027
H           0.60449702883919   -2.99163807446443   -2.67958120745669
H           0.90921475652186   -1.44606415387948   -3.11167367665128
