    26
        -50.45234089  Gyration_radius:  2.45886135925 Dipole_moment: 5.681
 S           0.05567992451348    1.93787422948099    1.00261761702335
O          -0.33703033320351    1.71809708792686   -0.38093419953868
O           1.10966208054486    0.84826611374358    1.34814916796700
O           0.58181417122720    3.22049546821324    1.29003760745188
O          -1.12568673485409    1.61799678033075    1.91275014711616
O          -1.22961691595253   -1.47947434891635   -1.24231554082838
H          -1.73699051972716   -2.19525550377040   -1.62683027431395
O           1.54697217818222    1.25888170392084   -2.17290244171498
H           2.26313232914135    1.89344497521519   -2.12678849180026
H           0.86589779636195    1.56434427128627   -1.53410542546213
O          -1.40390347233966    0.73479158242223   -2.64969707916219
H          -1.29218054984699    1.28023721357328   -1.85350317499730
H          -0.57863712267022    0.83421014882060   -3.13557914088786
H          -1.37316118938240   -0.68219444193770   -1.81770825516295
O           1.33576900429930   -0.88806809643921   -0.52376534999349
H           1.58820716150663   -0.28141066818459   -1.24656052141991
H           1.17952118092723    0.13747453931026    0.62498639081944
H           0.44655188297035   -1.21190001441501   -0.76016933844263
O          -1.62507928712439   -0.79166142791643    1.39075296989634
H          -0.85939760015497   -1.27400950983566    1.79766809650358
H          -1.40670421854919    0.64850181665662    1.70886585175157
H          -1.58210758373675   -0.98546580042180    0.43689772110361
N           0.63597716225422   -1.92677226390101    2.32361430142448
H           0.68304366791635   -2.68699521014113    2.98974043988347
H           1.07507601781257   -1.11170608840394    2.73561748544813
H           1.18319093988771   -2.17970256662011    1.50916142734346
