    26
        -50.47250274  Gyration_radius:  2.48741566925 Dipole_moment: 2.870
 S          -0.16700874115401   -2.25898949895734    0.11985642141091
O           0.96214302190737   -1.39585292074393   -0.16966877978205
O          -1.25619090155722   -2.06860440903068   -0.83013392166823
O          -0.62227564349936   -2.17363330051957    1.49438755501115
O           0.35007641463199   -3.74295816774800   -0.08071291582276
H          -0.37608128509590   -4.23963851856983    0.28061845768190
H          -0.97558499704724   -0.68349131231827    1.93500422487187
O           1.42961235691826    2.35483813434180   -0.05877042169908
H           2.04206785919320    3.06115345560433    0.14731741392233
O          -1.13079210809839    0.25760545992418    2.21147194372877
H          -1.75432448672104    0.21947110879325    2.93819949456583
O           1.48619509447997    0.45981727831130   -2.05895039767115
H           1.61325758758847    1.22720051713638   -1.47144711576582
H           1.53591756066185   -0.31555199344224   -1.46974991807380
O           1.59704385521711    0.42332875241618    1.68080197176636
H           1.50204184394529   -0.33827003105289    1.07403692633939
H           1.56730691476522    1.64846755616189    0.63731766304718
H           0.75067705036057    0.46489253479773    2.14970462555899
O          -1.29475963559311    1.97519640308876    0.09172523563922
H          -1.32515930152882    1.40694769053179    0.88457414242757
H          -0.37813355355599    2.30177354505468    0.04511762334779
H          -1.33939437237632    0.99341686400010   -1.16620655640226
N          -1.13320580843051    0.28947957858250   -1.93458458026345
H          -0.10203222980109    0.39519489076362   -2.17787234597290
H          -1.73329561858264    0.42384708967781   -2.73999270381934
H          -1.24810086662813   -0.68564070680345   -1.53204406237795
