    26
        -50.45028639  Gyration_radius:  2.64096544613 Dipole_moment: 5.313
 S           0.27922377065200   -1.27507551212200   -0.88339945043139
O           0.13993782246344   -1.66490374770339    0.48273385550893
O           1.53579036963929   -0.42676974518260   -1.10297404896485
O          -0.85755468598739   -0.55313992888618   -1.42335938725562
O           0.55346624649538   -2.50818180711552   -1.75322691749749
H           0.59185526463358   -2.12287090079123   -2.69723977611941
H          -1.35155200572059    0.73293085683260   -0.50872277440213
O          -1.48610085360139    1.57058251920568   -0.00990512021847
H          -2.24406435992136    2.00565972809700   -0.40390472807379
O           1.46234509575212    1.34764258395371    2.63440569298634
H           1.70476702659868    2.09838258492751    3.17842023495325
O          -1.40757779802226   -1.58904110934394    2.69330081464712
H          -0.86403426897227   -2.02959486117072    3.34928220685164
H          -0.91943639969292   -1.66898300469084    1.85425538323700
O           1.25116473395753    1.76176054196909    0.05136806937411
H           1.46122781109249    1.59388255581950    1.01026084948894
H           1.47227302686041    0.51144891508456   -0.61280665223272
H           0.28654578275537    1.89453933788346    0.02361137093533
O          -1.15545066357054    1.10241058522153    2.74788041046731
H          -1.34955053905134    0.14645240152843    2.83482254361933
H           0.48585731395711    1.21410186474524    2.76852390688784
H          -1.39397455399241    1.32464037712747    1.83601797723701
N           0.49273949647885   -1.08296802362470   -3.88585291208370
H          -0.22742399655495   -0.53186111498638   -3.42957611614113
H           0.19905975687520   -1.31796567822413   -4.82461508185987
H           1.34046657687197   -0.53307942855116   -3.92930036090186
