    26
        -50.47250192  Gyration_radius:  2.48701819463 Dipole_moment: 2.859
 S           0.62906592671627   -0.57938116093661   -2.10017826168857
O          -0.78394361390157   -0.90143271152011   -2.25652636166766
O           1.13602587397245   -0.98229857712275   -0.80232436748374
O           0.91152725509525    0.80525586157502   -2.42735802541707
O           1.41050540166707   -1.45029950162074   -3.16820012389334
H           1.16568516108841   -1.01239834594126   -3.97603377351946
H           0.36436073969157    1.81253293979664   -1.32010617261992
O           0.40303492218653    0.17406123286761    2.72047904925218
H           0.78386701929216    0.34581464598893    3.58185458871063
O           0.07382222143958    2.42102710868773   -0.59105758316790
H          -0.07294679732731    3.27397916569059   -1.00253626819388
O           0.06035546463654   -2.19574761371601    1.35574888809262
H           0.21210814484883   -1.48558205106128    2.00599817301819
H           0.63053256178969   -1.96569516858067    0.59891545064499
O           1.98964610812552    0.96674184675023    0.81256704173135
H           1.07493862656017    0.48519443082277    2.04660285824884
H           1.85367091023991    0.22894923140464    0.18455830672714
H           1.51543825816723    1.71177353814277    0.41526379704202
O          -1.62679816087905    1.23634401982452    1.19091632313604
H          -1.00343509334005    0.94841985565100    1.88197172043307
H          -1.08767578239834    1.73948905045018    0.55163131487244
H          -1.97252298732350   -0.15263667144973    0.48494042818799
N          -1.95981310121690   -1.12593557110578    0.05929171869694
H          -1.55169623917930   -1.05561016513320   -0.91772368833287
H          -2.88402364118373   -1.54093934757886    0.03871908859479
H          -1.27172919876728   -1.70162604188584    0.63258588859503
