    26
        -50.45059458  Gyration_radius:  2.46316881559 Dipole_moment: 4.137
 S           0.36415728127582    1.30445822982338    1.47298444705875
O           1.08137510609664   -0.02835276105669    1.82433944735062
O          -0.89115811441628    0.97514332677859    0.82530834987831
O           0.26833630600479    2.10696403334966    2.63395237636452
O           1.29418289617868    1.93541947533172    0.42325817189933
O           0.08778684393867   -0.94490127716923   -2.04647420639721
H          -0.08331116723564   -1.49827948717590   -2.80898981726552
O          -2.04166827519343    2.59719276047022   -0.96686494473753
H          -2.18027687678414    3.45772225762275   -0.56843817710584
H          -1.82546277436453    1.98496041955040   -0.23790371765193
O           2.17600768947264   -0.68720714167688   -0.40272300113892
H           2.59961672616368    0.12838552622433   -0.68463590459325
H           1.52535059943400   -0.34714944425444    0.97933701224546
H           1.46615794342535   -0.87465280765998   -1.05664786943694
O           0.32016957936314    1.75142945347867   -1.87564449152672
H           0.17745886718207    0.79885790297793   -2.04901839378104
H          -0.57453406714438    2.13900177112928   -1.75371557865295
H           0.89315111108153    1.87788761888885   -0.54114472627142
O          -1.57718280315018   -1.45078124248238   -0.16668545640631
H          -0.61822472694922   -1.17611495303510   -1.35710475495608
H          -1.12879711031346   -2.05158681714443    0.47315957505384
H          -1.54401967285910   -0.57287357860857    0.24998963573710
N          -0.11798569717073   -2.79244061938708    1.70502195122544
H          -0.60442904891185   -3.29766623703085    2.43472084550744
H           0.29168142824988   -1.96067058738507    2.11848452347746
H           0.64161796662506   -3.37474583156057    1.37543470412300
