    26
        -50.45462886  Gyration_radius:  2.52329062983 Dipole_moment: 3.145
 S           2.52549491220891    0.18880103696273    0.39132388357807
O           1.89743152381362   -0.33854166844906    1.60332555526187
O           1.86012664940066    1.38000394846687   -0.08965235272592
O           2.67641813505781   -0.84545052415438   -0.61391156172699
O           3.98428750021089    0.62529306641975    0.81191807538127
H           4.36071109473024   -0.21632373928966    1.04439842594270
H           1.28347167833372   -1.56658639018731   -0.85536461392402
O           0.38846642077229   -1.94851671579722   -1.05971014930003
H           0.55439016726669   -2.79529686744622   -1.47695109359947
O          -0.58469035507660    2.18062366904588    0.59563621683993
H           0.38533736894027    2.24258333504816    0.50471410069163
O          -1.62625816166110   -1.49969079604055    0.69511044687473
H          -2.22719216484424   -0.93110906460265    0.13860554364686
H          -0.90335353606299   -1.78254586843694    0.10026456965709
O          -0.22365129378535    0.68394752935480   -1.71511350312207
H           0.63540144354332    1.00559793966307   -1.39187080470929
H          -0.12995563337738   -0.28013801520475   -1.71446380417652
H          -0.84907768446668    1.79383053178206   -0.25616020607681
O          -0.48619862171499    0.16808573118783    2.14358379749701
H          -1.01318266689166   -0.59666219474448    1.59856761716084
H           0.51754614530881   -0.05350370378281    2.01175928522559
H          -0.62480237617083    1.03961109504817    1.61110783640400
N          -3.00897001887953    0.20077043246889   -0.84409226492450
H          -3.36688328377026    1.01192902226615   -0.35537512920804
H          -3.75701576569240   -0.17699913179905   -1.41083136080201
H          -2.26785148718849    0.51028733221864   -1.46681851986650
