    26
        -50.45462884  Gyration_radius:  2.52349919168 Dipole_moment: 3.145
 S          -0.88818392249703   -2.10541002104821    1.16083587941857
O           0.20730973994203   -1.55286602342564    1.95844542167281
O          -0.52698250409251   -2.24457108176522   -0.23320216379284
O          -2.11831485701107   -1.36869176450055    1.37745615627439
O          -1.13389120048378   -3.56547074327352    1.71148243921785
H          -1.42702020547378   -3.37396481882003    2.59545696614533
H          -1.86186361255837    0.18161348393399    1.15464054484854
O           1.51740739404024   -1.03889173615802   -1.43849978924843
H           0.98024957262503   -1.79067512695519   -1.12318176110330
O          -1.70795636083776    1.13712318088640    0.92673624394942
H          -2.41429376471804    1.62488523532498    1.35314156170435
O           0.84890948775888    2.01819506190614    0.76272781860325
H          -0.08282983502107    1.77073055799421    0.92712222912188
H           0.90379239087209    2.23302980455277   -0.20931103624119
O           2.00362027340124   -0.17874822875924    0.90233101761915
H           1.95048852951289   -0.50720373157366   -0.07318667289586
H           1.57085493285121    0.80726230438981    0.90457699861392
H           1.32032801147152   -0.77187653349395    1.40764637024163
O          -1.01399147736267    0.09628873304590   -1.55690695450896
H          -1.07660915253782   -0.81912589277550   -1.23441054711037
H          -1.39284526491767    0.62542917650852   -0.83947294614537
H           0.84066430730620   -0.42294886204892   -1.76655298774408
N           0.90466283006013    2.32207956907218   -1.89765162036576
H           0.69878054294175    3.23879839393604   -2.27272772536965
H           0.14607572954760    1.69785378674050   -2.15781004742631
H           1.75163840518305    1.98715527630549   -2.33968538547842
