    26
        -50.47229286  Gyration_radius:  2.4806246308 Dipole_moment: 1.997
 S           0.20078211655922    2.03556523910793   -1.00559705539713
O           0.33277913665670    0.69385042064398   -1.56529467956872
O           1.06932946322644    2.22697030760388    0.13784637664876
O          -1.18542339232954    2.38154800512979   -0.75710248305262
O           0.70274694789812    3.04349823905335   -2.12070959319860
H          -0.07626274208191    3.12831673429978   -2.65996487698141
H          -1.70826792221939    1.43931726356161    0.42610888548486
O          -0.37195155437971   -2.70555365041466   -0.00425765349423
H          -0.72743602472508   -3.57723279854377   -0.17825752721440
O          -2.04836696403148    0.79345317888343    1.09710147791464
H          -2.64450585435214    1.28956329147026    1.66026770003587
O          -0.28585536766881   -1.01131463525522    2.16358155347799
H          -0.35441350140262   -1.74912783824525    1.53095845163102
H          -0.95078737118091   -0.35878824466277    1.87261338574201
O           1.87927774653559   -1.42587264491096   -0.96459003782651
H           2.11451365440476   -0.61712322045508    0.38570256317076
H           1.18214649273266   -2.05540860307029   -0.70628016039647
H           1.40443449724488   -0.69378213827778   -1.40343226857781
O          -1.79405362618666   -0.85177170713775   -1.15812453200288
H          -2.21200312183380   -0.37930539889170   -0.42512123414898
H          -1.06634396973053   -0.26251859883532   -1.44743087995296
H          -0.95768510313888   -2.05777026106103   -0.49246859958448
N           1.95027223651849    0.02032874953765    1.22313706704313
H           1.66241710274196    0.95958986710006    0.82792854905547
H           2.76945424228306    0.10651888571142    1.81299020196434
H           1.11520285846741   -0.37295044233278    1.75039537920964
