    26
        -50.47229307  Gyration_radius:  2.48037954699 Dipole_moment: 1.995
 S           2.10880127346265   -0.63188599501284    0.58920316618931
O           1.50484616281750   -1.92867579175710    0.36108134587189
O           1.18298866733489    0.28668929116073    1.24494125500526
O           2.70500740707777   -0.04292048656240   -0.59416787760305
O           3.30477453661541   -0.86914570464524    1.60170338566561
H           3.84597331059647   -0.10498631515985    1.43414608000499
H           1.53589819393474    0.13360415189686   -1.67308810263691
O           0.79170154493396    0.31923282161552   -2.30124340745047
H           1.13614486057855    0.13812169934876   -3.17717711682670
O          -2.17585584792116    1.64846026455386    0.08889655832866
H          -2.73025942540515    2.42884138837908    0.07832840110256
O          -1.73176572129724   -0.48133563488161   -1.59803535942512
H          -0.85337730097059   -0.22550307890122   -1.93792718001074
H          -2.05435854800575    0.29496621549880   -1.10561580040343
O          -1.33239350994995    0.04425131949823    2.17203465728816
H          -1.77331839373439    0.68335639176433    1.58350978984493
H          -1.31866691890604   -1.27352940155263    1.27986457034073
H          -0.37796084312707    0.21686800463483    2.05692074265709
O           0.32421653776398    2.25297368163427   -0.32755086297526
H           0.52146178749692    1.87608138550501   -1.19604380888827
H          -1.23808367196948    1.96471155618944   -0.05872544204897
H           0.73578986404198    1.63172961410940    0.30902524105962
N          -1.10371063668770   -1.95859684453364    0.49302865471839
H          -0.04874736736771   -2.03959920148912    0.45113845310282
H          -1.42376818080762   -1.49986095085491   -0.41089362016377
H          -1.53533778051971   -2.86384836044077    0.63664626725617
