    26
        -50.47229301  Gyration_radius:  2.48028035226 Dipole_moment: 1.995
 S           1.41315526277704    1.51510870094001    0.94863244128978
O           0.35853130926044    2.39553466457161    0.48917053742482
O           1.68175551067731    0.44831588967464   -0.01092083162686
O           1.20725532483893    0.99706273528384    2.28722823458009
O           2.72790159868723    2.39681543832984    1.02531699158941
H           3.25437702357262    1.89429681610271    1.63781268160734
H          -0.16341546688122    0.17045273187427    2.26288806509344
O          -0.57189607749052   -2.32644027541020   -1.31285510403550
H          -0.59275977142690   -3.24907949149435   -1.56734158241959
O          -0.96591597142657   -0.40983016894672    2.21753906801999
H          -1.43357293175672   -0.27596504675987    3.04344161067208
O          -2.33436571259608   -0.55931372872067   -0.15093115908774
H          -1.87240769285907   -1.29045120753345   -0.59951321131491
H          -1.93222992921727   -0.50502227003564    0.73668908705826
O           0.70258928034621   -0.15362526290285   -2.44470046165926
H           1.26916231736710    0.04744898102923   -1.67491404556296
H           0.29699837597032   -1.01467104949500   -2.23675091380456
H          -0.44162946521502    0.86524429623002   -2.01361518086174
O           0.89686980305248   -1.95806781651078    0.80781938358970
H           1.32516971536068   -1.11573546841242    0.54792605977329
H           0.26656441319912   -1.70693444232319    1.49688648106654
H           0.02167102055491   -2.26703852845542   -0.50959970689393
N          -1.13256730509130    1.41532080333383   -1.41816303193029
H          -1.75561271317738    0.70395468204419   -0.93273297384815
H          -1.66596416675772    2.08499260614740   -1.95985326642966
H          -0.55966374175862    1.89762644143148   -0.66945918227921
