    26
        -50.47229298  Gyration_radius:  2.48023328207 Dipole_moment: 1.995
 S           2.11246169614340    0.85403032224537   -0.01176837274369
O           1.33746713213623    2.07695253174863    0.03684011860487
O           1.49429969135781   -0.14216841284259   -0.88145654331923
O           2.43287968552123    0.30704207172533    1.29236207972176
O           3.50207879153695    1.23289724362051   -0.67314100982092
H           4.05742675031733    0.52760446249621   -0.35842331188896
H           1.04263395878543   -0.00550354364096    2.02191156086642
O          -1.89151799808466   -1.86098207596222   -0.64883003902700
H          -2.34540458702945   -2.69395679802151   -0.77772489450016
O           0.18088283455798   -0.27595308766842    2.43055986213438
H           0.25834813551639   -0.07407888079692    3.36434312937655
O          -2.13504815398772    0.27229448082478    1.07391061688354
H          -1.35647739916189    0.10227057870549    1.63733849195175
H          -2.23270398495010   -0.52401676714071    0.52111887800985
O           0.45626660290446   -2.21403612864794    0.42493144184222
H           0.37567316831122   -1.83445646524305    1.31071033527359
H          -0.99936969759552   -2.08227441178028   -0.25353768313319
H           0.95596073778086   -1.54286546704685   -0.08532400989141
O          -0.69444603716267   -0.14159268826347   -2.44790778602086
H           0.20739363505127   -0.21769063273724   -2.08060566628203
H          -1.20763115355341   -0.83300144325296   -1.99208871168440
H          -1.05513990950872    1.15443884949420   -1.59753463912302
N          -1.12963601970058    1.84349449048031   -0.78869473857977
H          -0.13826403706078    2.03073223964612   -0.46709999078869
H          -1.63002411410280    1.33828473689216    0.00145621014982
H          -1.59810971801209    2.70253481516633   -1.05134530800404
