    26
        -50.44071534  Gyration_radius:  2.48841593152 Dipole_moment: 3.255
 S          -1.44475796397654    1.72313022544507    0.11550071623978
O          -1.45515590238846    1.20922090090887   -1.25576889420628
O          -0.16570544851078    2.22560301803554    0.54235013414328
O          -2.02843353257871    0.74885441043534    1.02652987810838
O          -2.42713246882963    2.96478248438332    0.10169557793889
H          -3.23419337433086    2.59178174829464   -0.23812174058851
H          -1.68975495795421   -0.74854934498480    0.89592610203433
O          -1.49533232929476   -1.71102157427629    0.67530332371859
H          -2.31703760723875   -2.18431584918242    0.81574787618492
O           1.82285839333463   -1.87185878059935   -1.11606581832000
H           1.86334473403788   -2.81316647971143   -1.29400486614823
O           1.21067419894042    0.82787848221090    2.34393539614827
H           0.63111439830186    1.33924942717784    1.74343505904434
H           1.98902376254958    1.36949449236164    2.48331297581533
O          -0.55127270231480   -1.08812188452533   -1.62910883486920
H          -0.82255781719316   -0.08049722547876   -1.57876570791151
H           0.48266698232736   -1.15268057362885   -1.54135586515620
H          -0.92981961868011   -1.47053570980727   -0.76957509957395
O           1.22606854982968   -1.70613061559905    1.42688747034488
H           0.27323493583550   -1.86140856993383    1.40176528564179
H           1.73234205273337   -1.77652055294425   -0.12963904670957
H           1.32024239164036   -0.81053783844335    1.81027489884689
N           1.37297213617644    0.82396419191750   -1.47141376116631
H           2.34806449513776    0.70258130966877   -1.22950581512695
H           0.94840680186740    1.42945174719186   -0.77624140116125
H           1.34013989057706    1.31935256107641   -2.35309783327330
