    26
        -50.44071474  Gyration_radius:  2.48854703687 Dipole_moment: 3.248
 S           0.91243254278798   -0.37671259970641   -2.02542384280826
O           0.39679737065734    0.96651387400678   -2.04873153127788
O          -0.10581122185378   -1.40087457316051   -1.78383917077857
O           2.03981099268454   -0.55954528804704   -1.12216808198682
O           1.45916523999549   -0.66733326315944   -3.48271211178022
H           1.75200920983340   -1.57092889524295   -3.42225610219052
H           1.80712866509657   -0.90455428822217    0.36131847036552
O          -1.91480359512551   -0.02148851186405    2.10061383216900
H          -2.02552835701420   -0.41972541374131    2.96573890226337
O           1.56794341228017   -1.22694506168402    1.28422842743233
H           2.22650866080527   -1.88523209940703    1.51192572931151
O           0.97752722003233    2.58172678137293   -0.01215028183444
H           0.55786203328297    3.40464033397285   -0.26751707012964
H           0.85848419031383    1.97262548973866   -0.76898066759406
O          -0.84027645152145   -1.76257042441087    0.57464600642338
H          -0.68550113987346   -1.58445951501250   -0.44319988425240
H           0.08326519335087   -1.63253008781372    0.97264309467871
H          -1.42782147783683   -0.99395861664800    0.95505137877775
O           0.41056433380010    1.17392893921977    2.21459250797806
H          -1.10401720593803    0.55280282879343    2.15783047617419
H           1.00699334904616    0.42733974978210    2.07451923097573
H           0.59290051205333    1.77903445228516    1.46722622584858
N          -2.05089729208346    0.35305258551305   -0.62665543614688
H          -2.73920331884943   -0.04202707312674   -1.25444892820407
H          -1.28076109223794    0.68038101861334   -1.20105099692707
H          -2.47477178368322    1.15683966796977   -0.18120017652096
