    26
        -50.45234077  Gyration_radius:  2.45871882766 Dipole_moment: 5.677
 S           1.52083966719527    1.30007150722294    0.87054966326630
O           1.31595278569812    1.08105321410233   -0.55311071089130
O           0.12984032505532    1.15985898293954    1.55074426509089
O           2.33474014851085    0.14288489091038    1.44053936455530
O           2.10011917452713    2.54426308537673    1.21826143701010
O          -0.45375281953058   -1.71507965875834   -1.44739589290700
H          -0.68276114146057   -2.51880380679303   -1.91555199312964
O          -0.72296401361063    2.27444062228983   -1.73227872112698
H           0.10704826955355    1.94546432092888   -1.32245694414910
H          -0.77239549369000    3.20888816187481   -1.52724713376321
O          -1.65445204422961    0.32394340109507   -0.08828807897466
H          -0.57484645133523    0.79607297086129    0.91499766810860
H          -1.58584655080255    1.04221654665880   -0.74669917310360
H          -1.31618049506259   -0.47127506892405   -0.54063572310057
O           0.84518164225470   -0.00982024161551   -2.97005741634838
H           0.22786147634535    0.68701234007671   -3.21572031630433
H           1.32901507367326    0.34342611283493   -2.20522697845757
H           0.05361938422518   -1.14487998953647   -2.08368997384109
O           0.91253342695917   -1.86959161471874    0.93443202398191
H           0.52510541444086   -1.83999657233449    0.04099419675421
H           1.81971230146106   -0.72134804029645    1.22096630764068
H           0.14996739625660   -1.77013424825479    1.56140397045823
N          -1.20529141616356   -1.32419230997017    2.51204832034734
H          -0.85477405797097   -0.49752639538261    2.98180909777025
H          -1.59893972008590   -1.94485791168606    3.20755808749506
H          -1.94933229222685   -1.02209031890376    1.89405465362455
