    26
        -50.44586463  Gyration_radius:  2.4837333184 Dipole_moment: 6.910
 S          -0.00185023449540   -1.12860017761062   -0.62884057770465
O          -1.18545617062905   -0.54225193005317    0.04193559236182
O           1.18839079015995   -1.03659399611139    0.16477358482250
O           0.14329566811348   -0.47162243094334   -1.93360333496430
O          -0.33052568644031   -2.62381547596683   -0.88578881942096
H          -1.11267314764194   -2.58761194865095   -1.47768099142788
H           0.62494598358967    1.01105902237981   -1.75616366196412
O           0.78098895552820    1.97450442661494   -1.53271435662511
H           0.66685316944006    2.45975905636249   -2.35258867747869
O           0.64405345798071    2.12267839827932    2.32192278997236
H           0.88506338272104    2.99170122785951    2.64773436327581
O          -2.25264785689907   -1.60170587117954   -2.35576292387470
H          -1.48382008385261   -1.04465288518379   -2.56175197558060
H          -2.69868163074650   -1.17216802745105   -1.61892765828630
O           2.45470976224732    1.24788098624106    0.67830389150297
H           2.16647260611175    0.31925034269412    0.57386931275560
H           2.25400367360757    1.66513687007957   -0.16808950472210
H           1.43654345938434    1.75891859232660    1.83064701832017
O          -0.93924330913364    1.88162358423232    0.38735232504274
H          -0.37795127402887    2.00216035836059    1.26308044954517
H          -0.30241537746448    2.07246718007495   -0.37600049587429
H          -1.12013298882453    0.82089114020882    0.29688116058043
N          -0.42296311593257   -2.58181496123689    2.14089627373526
H           0.51187823337627   -2.21291825276279    2.00722606755342
H          -1.04848901166576   -1.90463766487361    1.72027343460161
H          -0.48034927448703   -3.41963756371366    1.57301670386285
