    26
        -50.45028653  Gyration_radius:  2.64119066248 Dipole_moment: 5.317
 S          -0.09909615447411   -1.37661528475955   -0.76317953308842
O          -1.54864296293099   -1.11178237245822   -0.34412768680288
O           0.75742631647778   -1.52224652264388    0.36946298897478
O           0.30256270183385   -0.33823189778936   -1.69349056598420
O          -0.20703386743420   -2.71090067096187   -1.51179953451761
H          -0.79867875003820   -2.48119294459063   -2.31078888865259
H           0.58773239289057    1.13422984437972   -0.99703135150231
O           0.57955096208083    2.00987006174326   -0.54786249642034
H           0.84992491328402    2.65626101105027   -1.20215637998501
O          -0.58692020147451    0.97270951001402    3.09842691974857
H          -0.84776231169852    1.62962125247659    3.74557390433175
O           2.92977398273169   -0.60219782189678    1.68192278768575
H           2.94203566862068   -1.13903830201970    2.47655464925951
H           2.20617776278083   -0.96001862552267    1.13684506984192
O           1.68299637922350    1.77129614215642    2.03284494769618
H           0.31581586682645    1.24301864073370    2.78008707715304
H           2.25661680237426    0.98120620455071    1.95715070144656
H           1.39685408379222    1.96102066135427    1.12735801440986
O          -1.68996222062647    1.13429621854651    0.72265268400384
H          -1.65849165122593   -0.17210063198838    0.13480260070422
H          -1.38172673897990    1.01033414226595    1.66157984611572
H          -0.97198775449832    1.62516789034625    0.28388531683906
N          -1.64507683708034   -1.62774662238572   -3.33992678002254
H          -1.71992794343072   -1.83666366029786   -4.32661164140458
H          -1.08368376212447   -0.79223713639798   -3.20837189536080
H          -2.56847666687938   -1.45805907588206   -2.96380073445417
