    26
        -50.46357511  Gyration_radius:  2.63950786679 Dipole_moment: 1.777
 S          -0.86586465815070   -1.42958512271828   -0.55469290241122
O           0.12870641510853   -1.49800617985130   -1.61903151237222
O          -1.47642255603562   -0.11330980299523   -0.48718049579091
O          -0.29609395871594   -1.84302265617428    0.72918868780017
O          -2.01255482188515   -2.43554604736707   -0.89595032901510
H          -1.63649519761999   -3.31755621209573   -0.69991622407761
H           0.79013661912019   -0.73167251272137    1.20678019182085
O           1.41769992144587   -0.03646514634610    1.52170824217133
H           2.11882971351342   -0.50275787070436    1.97990998032520
O           0.00266656092927    3.54181981040224    0.44912150435533
H          -0.00489981919996    4.28272965827392    1.05550873821106
O          -0.64473277543978   -4.40473674424795    0.23476542466323
H          -0.29123199635861   -3.55481125204458    0.56576279869306
H          -1.09488080075163   -4.81912867090792    0.97451151632826
O           1.99759764989415    1.93903600552696   -0.28958206012978
H           1.91160566553582    1.23824335654650    0.38467801135604
H           1.09904924460863    1.42998762837929   -1.41407228136876
H           1.41423976499198    2.66800701184553    0.01818770195508
O          -1.00612744694844    1.42257613529007    1.66818892058991
H          -1.35243292650155    0.85888941192472    0.95053263933107
H          -0.19611448116254    0.98121873672926    1.95566626205679
H          -0.47861146019316    2.80677338549591    0.90832181841002
N           0.32340856349604    1.01679975673196   -2.04807417456497
H           0.30938359374773    1.43375177462737   -2.97212704552548
H          -0.57928398251413    1.11311476364453   -1.55673573076906
H           0.42242316904536   -0.04634922723404   -2.06546967204449
