    26
        -50.45234090  Gyration_radius:  2.45890651042 Dipole_moment: 5.682
 S           1.47083476056920    1.34504420997280    0.88877114385564
O           1.73798430045347   -0.18591416665067    0.84273261937529
O           0.66688541746260    1.54652067393939    2.16919758146393
O           2.70076976185361    2.04365862496797    0.94960032459826
O           0.62877556675052    1.65876200606884   -0.25549274598074
O          -2.16377004645053   -0.28432335675677   -0.69270866122140
H          -3.07895873957679   -0.51352225175112   -0.85841673481806
O           1.24311836022901    0.61776665543875   -2.60289077840234
H           2.16676450605195    0.73473894833692   -2.82836799995269
H           1.09919975387953    1.10929770571954   -1.76449537336462
O          -1.26805643897639   -0.03764285260965    1.89573494690275
H          -0.17024769997991    0.95147837823974    2.09390252352708
H          -1.63625386147978   -0.02741918626252    0.99377995171718
H          -0.84661192224118   -0.92939233681960    2.00384527804744
O          -1.43510998305852    1.89591504387477   -1.96904644161009
H          -0.79283685659178    2.11874007226210   -1.27494875013196
H          -0.90099631294842    1.62498658935658   -2.72291030182542
H          -1.98306128217374    0.55866960330018   -1.18684255648909
O           0.33567219490508   -1.34601809351963   -0.96167934818108
H           0.66013271790655   -0.84452888542122   -1.73461620351715
H           1.15989734369704   -0.65722785816445    0.15205875551628
H          -0.59596320526130   -1.07745481160033   -0.85504813795103
N           0.06385934115832   -2.38128012088992    1.96094839565475
H           0.08278514514083   -2.72447301649748    1.00780190625160
H          -0.13855314248799   -3.15797532460764    2.57700745264844
H           0.99374031117384   -2.03840625993543    2.17208312388050
