    26
        -50.46357513  Gyration_radius:  2.63954433994 Dipole_moment: 1.777
 S          -0.67079009165568    1.09441953720925    1.20565567702857
O          -1.60409794136315    1.51059675658785    0.16531477144571
O           0.70407222883043    1.17516715833851    0.74389485770025
O          -1.00686390063412   -0.23599524208519    1.71654177990346
O          -0.79854776294272    2.09352058419793    2.40097967385736
H          -1.63847832928521    1.85004270606904    2.84030142190983
H          -0.72886562524477   -1.33451877795933    0.55069566228613
O          -0.51875736478895   -2.00931709578110   -0.13980810464156
H          -1.18329236786892   -2.69428779621639   -0.04937914173131
O           2.75107016346932   -0.84147364835470   -2.11442632512773
H           3.46044514474831   -1.45130916452192   -2.31844236343017
O          -2.82506587351545    0.69175310434251    3.37835646862295
H          -2.66936040922853    0.34034973854694    4.25804424951261
H          -2.32643018366080    0.12144761815009    2.75940565733104
O           2.10171298187756   -1.10042578186345    0.43637107301237
H           1.34514486924853   -1.69732822948016    0.36661647160087
H           2.61618983224614   -0.89599879397047   -1.13379766353284
H           1.71458448868178   -0.24036152051795    0.68763248709398
O           0.13891873104747   -1.00943221903031   -2.60708025793279
H           0.03079516561512    0.46940928535888   -2.24307044882250
H           1.11988458908482   -1.07216439762917   -2.59152116873857
H          -0.16041743613592   -1.45161958111109   -1.78974767484795
N           0.04171538300024    1.45502338533243   -1.79287261448331
H           0.79423390886774    1.47807409924650   -1.08660331272587
H          -0.81629965296566    1.55683471031702   -1.16537004074607
H           0.12849943255877    2.19759355486896   -2.47769112452236
