    26
        -50.45234087  Gyration_radius:  2.45890317852 Dipole_moment: 5.681
 S           1.46061405607457    1.05036865709726    1.23530364216295
O           1.37408702164389    1.12960043834796   -0.21485876154324
O           2.20572829321850   -0.22337279578695    1.62110602534663
O           2.02686717065356    2.17975794621296    1.87428039515435
O           0.01489011547519    0.82028806681599    1.75906968655773
O          -0.35444665287495   -1.37504617227427   -1.79623193215019
H          -0.55493954339736   -2.06055240257988   -2.43456460349653
O          -0.53925712266944    2.59730550757987   -1.29012171236189
H           0.24801493940474    2.16770901934330   -0.88900051930061
H          -0.59303932789650    3.47314985089163   -0.90585306986943
O          -1.63546387715061    0.38795611632929   -0.15358553067207
H          -1.27219493189332   -0.31106532405480   -0.72874248537746
H          -0.63851543419710    0.61461594364250    1.00811514432925
H          -1.50017525952913    1.22083745112887   -0.64565979131132
O           1.09530959483130    0.55856454973520   -2.83197602290768
H           0.21401167728598   -0.70528869852530   -2.26068890873366
H           0.51135927683125    1.30945406010993   -2.98086771283483
H           1.51733760925762    0.73643929977267   -1.97515521670041
O           0.80119294048975   -2.04746016836502    0.60704962951928
H          -0.01037135019448   -2.05115834314904    1.17798223182403
H           0.49150903225862   -1.82727956507797   -0.29005236306407
H           1.69781791298648   -1.00924484956591    1.19100278965073
N          -1.43435912894129   -1.76199245289727    2.08740226139520
H          -1.11285116533225   -1.05708719736676    2.74055980245473
H          -1.89383146213757   -2.49678340686453    2.60974114198457
H          -2.11929441419649   -1.31971552049142    1.48574588994442
