    26
        -50.43635097  Gyration_radius:  2.43695526274 Dipole_moment: 2.540
 S          -0.06158320301152   -1.50414280683675   -0.96874680764048
O           0.82616695915867   -0.48911235371304   -1.44902710831525
O          -0.83317652494541   -1.28922656669899    0.22474074304347
O           0.89305073879829   -2.72633542682926   -0.58401986347920
O          -0.80570409377391   -2.31764175955835   -2.10646685996598
H          -0.38056854155710   -3.17722411544412   -2.16819148922124
H           1.31562762720351   -2.52461692979720    0.29344397876473
O           1.73838215310496    0.86410952345770    1.85164672207872
H           2.50719742627195    1.25161993688391    2.27239165967591
O          -1.32419757865306    2.44687253294629   -0.21389332295124
H          -1.75926108401661    3.26595481488472    0.02706908787463
O           1.52276485658540   -1.85103586913877    1.80446351727136
H           0.60353026159816   -1.91814001205390    2.07795160167313
H           1.70982829044047   -0.88984150325196    1.77820646665426
O           1.38534874067052    1.95769989410957   -0.49190673424608
H           1.66517183891065    1.29544396570419    0.95163127476256
H           1.32078299439466    1.12284117542118   -0.98695699735668
H           0.47358649973704    2.29778981050344   -0.47759359496969
O          -1.04762448127233    0.85040650398673    1.86304153348626
H          -1.11623946386051    0.03524050170435    1.33590542859844
H          -0.10503998973558    0.92456852822542    2.08092045033218
H          -1.29374612200562    1.89311944071250    0.61125042358475
N          -1.63669783389691   -0.04991338641462   -1.83704752862271
H          -1.47442883369602    0.08583673212248   -2.82524377144304
H          -1.54902827826756    0.84721462686465   -1.36497667112074
H          -2.57414234817068   -0.40148726779217   -1.69859213846767
