    26
        -50.45825254  Gyration_radius:  2.58527428379 Dipole_moment: 3.131
 S           1.03995318642345   -2.03111196278838   -0.28535061639180
O           0.07266757363121   -2.58791472598584   -1.22316672100303
O           0.38692108192218   -1.46754977444068    0.88603842775473
O           1.97642038188342   -1.13085480246714   -0.92107057642270
O           1.89834022059781   -3.25060890304311    0.26316896226726
H           2.48244059993695   -3.46584111803300   -0.45801245828806
H           1.25175781827195    0.22494926358979   -1.38526818154272
O           0.80489551809744    1.05647696472575   -1.68633004528996
H           1.30032604915636    1.35532360845401   -2.45071111977391
O          -1.79575424319884    2.21970525223554    1.02940530837737
H          -2.10673115627085    3.11346874071788    1.17687794631219
O           1.85232200421033    0.31487862990368    2.22024725498063
H           1.57274995476458    0.19169018385179    3.12891579554582
H           1.39514959233669   -0.37639800054718    1.70004856073602
O           0.80937361094663    2.36399308144373    0.77919196544306
H           1.27100331930267    1.72391074024436    1.35631228635891
H           0.91103409827682    2.00847194361385   -0.11829857079695
H          -0.80071055429587    2.27830783691110    1.02916700059543
O          -1.91241037533139    1.08236348452894   -1.35773886382556
H          -0.97210972563329    1.13281126708637   -1.61305844283273
H          -2.02553583563072   -0.30912415334070   -0.80079839494766
H          -1.97365544576255    1.59445304245374   -0.51413504714616
N          -1.93809322988852   -1.27794160499166   -0.30776977431498
H          -1.31739020284918   -1.91284063855948   -0.88697237867383
H          -2.83920050778906   -1.68979747014679   -0.09245375521561
H          -1.34376373305890   -1.16082087540282    0.53176143815536
