    26
        -50.45825243  Gyration_radius:  2.58527079966 Dipole_moment: 3.128
 S          -1.31715496892027   -1.85224782876995   -0.35009722025057
O          -0.05993447562528   -1.46397943605847   -0.97046714635671
O          -2.44776648483698   -1.14781019938803   -0.94229089595998
O          -1.30517668542599   -1.77057158642315    1.09379319206777
O          -1.49955779933694   -3.38988725142179   -0.70659115910028
H          -2.19102534844708   -3.68319342412032   -0.12050023984301
H          -0.97164736146459   -0.27870413068813    1.58569683738354
O           2.00717681415500    2.24538862486284   -0.37757694797707
H           2.61103088704179    2.94679998602864   -0.13118627031482
O          -0.78112960648573    0.64397370225654    1.89260459536363
H          -1.22984027930255    0.73527851310793    2.73484847433629
O           2.10162384584657   -1.94381788225013    0.51371988583268
H           1.26596313937461   -1.83719220929195    0.01598298636999
H           2.77644592933001   -2.13775404323642   -0.13900161190257
O           1.99316401436017    0.53629997685951    1.60961029409762
H           2.13852093254129   -0.38190916208669    1.30686356915452
H           2.08295351250664    1.56058535069627    0.34277350485599
H           1.05455816188478    0.57216398428541    1.85452993087349
O          -0.61267844224814    2.50677781903134   -0.10585538947119
H           0.36967097859852    2.55365771781845   -0.20803135935052
H          -0.92590421928465    1.56691984162418   -1.23609965167422
H          -0.75574873143134    1.94759355836496    0.68075580959973
N          -1.04936093977245    0.75459008612131   -1.95327463719290
H          -1.85538495841094    0.13655467913901   -1.64953812844056
H          -0.26052552098797    0.09500624735752   -1.83315675255308
H          -1.13827241371829    1.08547706614311   -2.90751167955662
