    26
        -50.45825241  Gyration_radius:  2.58522841303 Dipole_moment: 3.125
 S          -0.08585503365253   -2.24211549805428    0.50425318910798
O           0.76916378183034   -1.52158843257077   -0.42634789228643
O          -1.40451110445699   -2.49413292437450   -0.06386520550064
O          -0.15176141293121   -1.64369391299387    1.81924086683110
O           0.60772365432563   -3.65881826465212    0.69524491746521
H           0.17681891887880   -4.02662444068983    1.46119256613823
H          -0.69663853591987   -0.13506006050133    1.74153436885369
O           0.46495938519744    2.63447148746726   -1.43301487005147
H           0.58380740947672    3.57900239284508   -1.53804004970718
O          -1.04644776494813    0.79102744515053    1.69902512545314
H          -1.48928356478169    0.93993322214516    2.53613496323273
O           2.81020776600183   -0.23902249047481    0.71096598719926
H           2.06244555155095   -0.76819009006309    0.36697609311745
H           3.49542755656960   -0.28151566921141    0.04186921089328
O           1.34291416143561    2.02988613720890    0.96152015167834
H           0.53162549025329    1.66470329372013    1.34973450420523
H           1.97202979271838    1.28168334882551    0.94527602693418
H           0.88652685272295    2.40637489836779   -0.55904726891921
O          -1.87898942403321    1.59071013006620   -0.78294168020361
H          -1.07921805019277    2.09455004885837   -1.07297704595428
H          -1.60413921945156    0.28665650698635   -1.47816666844762
H          -1.71069413943959    1.37169166895312    0.15279410430742
N          -1.24877420327368   -0.66924311123598   -1.86451177463548
H          -0.23065279480094   -0.73108610178733   -1.68741034247058
H          -1.48312751118545   -0.80757025162542   -2.84121024926301
H          -1.59355754193648   -1.45202930235738   -1.23822901798113
