    26
        -50.45300394  Gyration_radius:  2.54351546406 Dipole_moment: 3.563
 S          -1.05339464585069   -1.00914626097385   -0.62823142500694
O          -1.68746720012134   -0.51295962576828    0.59124233055915
O          -0.12856752279237   -2.09555795329117   -0.35847994143475
O          -0.39948754710371    0.07796715892871   -1.35825436332360
O          -2.20657409076652   -1.54284127577728   -1.52729625930649
H          -1.71462981955717   -1.88730472359241   -2.31504793046213
H          -0.12145896692114    1.50011860754903   -0.86622231246754
O           0.00475147029214    2.42317520212729   -0.48155635914921
H          -0.27998506391011    3.03651203951962   -1.16053284061878
O           0.51377118362563    1.06820432811455    3.03837811600909
H           0.60222078614825    0.13099945143977    2.78268836032735
O           1.31906160091443   -1.05662052529155    1.54157448182548
H           1.82031010781987   -1.79299424366975    1.89691940372587
H           0.74821842946838   -1.44352847534550    0.83567219425540
O           2.20589459058677    1.60640145063288    1.08208947256825
H           2.14935051489570    0.64854454790410    0.95242259392451
H           1.63342377397702    2.00331440977200    0.41172006550383
H           1.25443300042939    1.49398850128860    2.54280355816403
O          -1.38524479186569    1.73583316233853    1.56990622496849
H          -1.62474130426926    0.78920535688141    1.17120271008672
H          -0.63339795840033    1.49956842804727    2.30077714930907
H          -0.88679508738030    2.18065796949346    0.81159650841997
N          -0.29994439321955   -2.21608358193042   -3.18575831382595
H           0.14800108052020   -2.54821060063152   -2.33657849039112
H           0.04908517555929   -1.27994503605931   -3.35162420806865
H          -0.02683332209831   -2.80929830173393   -3.95941072556864
