    26
        -50.45996612  Gyration_radius:  2.46155360326 Dipole_moment: 6.430
 S          -1.71897705842017    0.34289382065137    1.12313799409475
O          -1.30931745419985    1.39964023184629    0.19921235481058
O          -0.69060210058712    0.03254871379453    2.09113076579555
O          -2.23081657316019   -0.81273981531220    0.41271076364305
O          -2.93739739407120    0.93359606575667    1.93984262948610
H          -3.63020212873946    0.89462797946481    1.29011727123171
H          -1.19933351820368   -1.87890627727381   -0.19524248242632
O           2.34447787460203    1.08021951174853    0.23596832383583
H           1.94451774668494    1.63237209901646    0.95315190079705
O          -0.52528678576835   -2.51720161502756   -0.54455617770303
H          -0.83275883814447   -3.38698383039922   -0.28411957584626
O           0.70587320069015    2.29632775536176    1.92959496889489
H           0.08159476116068    2.74989410813455    1.35545238744242
H           0.23948379259454    1.48045456076569    2.19526718107924
O           1.39843790977903   -1.26241011810930    0.99542889261217
H           2.18216641647567    0.14648999427084    0.52237998512638
H           0.71483078006558   -0.87605936980394    1.57247190254226
H           0.90645066800276   -1.83254607087615    0.38375103511386
O           0.58474882403887    1.32100638950625   -1.48059839942849
H           0.55377758005645    0.39791886058786   -1.99393577871648
H          -0.22558489903824    1.36792456611575   -0.87122911810343
H           1.42862232040093    1.25948632133718   -0.78514117836733
N           0.55798996139826   -0.94393721589124   -2.66234809965039
H           1.49741786909861   -1.25293140001635   -2.87766890306325
H           0.00777206878676   -0.97170954442578   -3.51071146475418
H           0.15211498649065   -1.59997571122878   -1.99406715844999
