    26
        -50.45882266  Gyration_radius:  2.49467054809 Dipole_moment: 4.344
 S           0.70209896878971    0.62829012386384    1.91429849699664
O          -0.05955581572975    1.45953473397695    0.99182933525135
O           1.80054849332341   -0.05849257321632    1.26449111833095
O          -0.16465036805100   -0.24450550569234    2.68060482782463
O           1.37030238287919    1.61972991398882    2.95142803861695
H           0.60067553925901    1.96137037692331    3.39236595022028
H          -1.13104444198232   -1.09030475680301    1.73068671391984
O           1.03931212089709    0.00812914772189   -2.35162030370922
H           1.82825825947360    0.45394869078823   -1.96408717470639
O          -1.64552244136726   -1.68094612976508    1.12028506380105
H          -1.86355241321226   -2.45579532090291    1.64159085612458
O           2.92016560948660    1.10450604173209   -0.82673040409261
H           2.51919123085703    0.76155100882938    0.00205899082395
H           3.83216138654853    0.80994460625612   -0.81874909101566
O           0.63837478199248   -1.77692110569110   -0.43882203995009
H           1.17239795574737   -1.28819157830293    0.21434411047554
H          -0.23074546658324   -1.88225525349359   -0.02000543856623
H           0.90248976611807   -0.78907418610157   -1.78349987369988
O          -0.79004016001787    1.40219694522072   -1.42353081526695
H          -0.00116302429371    0.85295702263435   -1.91010460898221
H          -1.60403121723814    0.73291165193546   -1.35948459871797
H          -0.47155707829355    1.51340322281806   -0.46617172266590
N          -2.66961307064433   -0.31308417635054   -1.18841650565464
H          -2.67314788248903   -0.98814867596381   -1.94249350194920
H          -3.60437241782636    0.05855933196701   -1.08304807464629
H          -2.41698069766443   -0.79931355637287   -0.32721934877277
