    26
        -50.45996634  Gyration_radius:  2.46192239817 Dipole_moment: 6.423
 S           0.91374601218576    0.39955837789878    1.82988612719772
O           0.40721601592572    1.54265580712601    1.07152678696548
O           1.88814499267772   -0.36477085828961    1.08346017113615
O          -0.16860762121303   -0.39475024932825    2.37706136924049
O           1.68150896447286    1.01201078715135    3.06929766242304
H           0.95526837297545    1.29575136991430    3.61300669487116
H          -0.91439183558814   -1.45736804865656    1.43628974947249
O           0.88409335549771    0.45110227499892   -2.39502609272603
H           1.66521720646849    0.87039861511859   -1.95535271106642
O          -1.33707364883257   -2.11070872877205    0.82127908854303
H          -1.39352259545679   -2.93111746624504    1.31385828646249
O           2.60107734060408    1.50832235760346   -0.67282248864243
H           2.54583768557352    0.77136380777334   -0.03440151942981
H           2.09913328429074    2.21734155896225   -0.25996354916307
O          -0.92533999684682    1.50172077458152   -1.08222536828693
H          -0.16229732404963    1.08282178534078   -1.74670918452872
H          -1.68543920251597    0.77185752185424   -1.00506978586460
H          -0.45521046909228    1.56014708583660   -0.18472036738055
O           0.76699006571638   -1.74409172175375   -0.93599502755237
H           0.85447680796686   -0.46656006483188   -2.02491748136463
H           1.32797467770231   -1.38436492706512   -0.22493286299737
H          -0.04955446098592   -2.01556833854949   -0.48794272107616
N          -2.70848003942804   -0.32123608705575   -0.92571844175004
H          -3.60385749289219   -0.01057444622924   -0.57207720902278
H          -2.33367235495556   -1.02023025592414   -0.28333813702700
H          -2.85323773018629   -0.76371093144629   -1.82445297842419
