    26
        -50.45234092  Gyration_radius:  2.45890095692 Dipole_moment: 5.681
 S           1.44961353110578    0.35061483711454    1.59355004231946
O           0.19416363619055   -0.52754501494824    1.85827763984020
O           1.91028000778697    0.90627186457672    2.81152938939628
O           2.47308084701492   -0.62300498477533    1.01841550089463
O           1.07963076462155    1.31275768907069    0.56688423616447
O          -0.42729561043480    0.06189159898897   -2.24943436351840
H          -0.61437567652233   -0.07800035766135   -3.17843361453880
O          -1.23671744808925    2.56221172931160    0.77942972898745
H          -0.32317076414934    2.20077190713762    0.77723847374503
H          -1.37680585038401    2.93456196944911    1.65087116733917
O           1.26037823036732   -1.65975988664721   -0.92643939633103
H           0.75345540971692   -1.00767382137014   -1.44319742201622
H           2.04555892708617   -1.04851981840464    0.18368108180923
H           0.58464986006346   -2.23909417729796   -0.48790929475195
O           0.42567085274167    2.50041483146773   -1.75985835158098
H          -0.08751134978448    0.99140306456103   -2.15995012520536
H          -0.30279782821048    2.98699455388547   -1.36035249896795
H           0.96017167657292    2.19083380897589   -1.00992582201475
O          -1.67762562098479   -0.04810971238040    0.17404467259683
H          -0.53904173909690   -0.36689503720581    1.17294946927174
H          -1.79154184187034    0.90406037705489    0.35979107295595
H          -1.30729116531309   -0.09081684679271   -0.72728588163883
N          -0.67247717412966   -2.98257300943647    0.40959940320863
H          -0.88510754664322   -3.96758236542489    0.31759310765477
H          -1.52645099337601   -2.45567800140812    0.26861041841403
H          -0.36844313426632   -2.80753518783808    1.36032137597290
