    26
        -50.43882617  Gyration_radius:  2.42426140714 Dipole_moment: 5.176
 S           1.96828348555106    0.00470725407938   -0.66382185736490
O           1.02787078311042    0.95174948960127   -1.20964004129146
O           1.33723555872348   -1.25859872396669   -0.27137850451757
O           2.74336975064203    0.55214802685138    0.44133582822010
O           2.98631197806538   -0.35592463379512   -1.80870580193480
H           3.54574742073394   -1.00993216025752   -1.40166661500653
H           1.75993104066113    0.99037596038117    1.54437352720219
O          -2.25797730544507    0.64204791632622    0.30653399287687
H          -3.05218501359672    0.85407655318455    0.79787607946017
O           1.03806778693209    1.15755351800814    2.22585015095582
H           1.46638155896504    1.10127469334837    3.08254701876253
O          -1.24503620456128   -0.12437222927299   -2.32614286741588
H          -1.86503752812910    0.26082845328951   -1.69806588485431
H          -0.37910018282032    0.24273088660936   -2.09145468094667
O          -0.48555326385872    2.55251117656270    0.31005805130909
H          -1.68617914837816    1.46034816836441    0.28137673487807
H           0.02024224097585    2.46409752698448    1.12689106012088
H           0.08151631144669    2.15738614619694   -0.38101179463101
O          -0.43395373231571   -0.77945572073912    1.39808657282576
H          -1.24902242543573   -0.41100130636605    0.89811151181136
H           0.22897447317708   -1.12253481704619    0.65672309699099
H           0.05678865806923   -0.00347511364975    1.83146858339173
N          -1.45706068600180   -2.45567696497631   -0.51094430737227
H          -2.16050270647521   -3.14743819241109   -0.74024333262017
H          -0.56079238332840   -2.92871741686698   -0.51243678849776
H          -1.42832046670885   -1.79470851043388   -1.28571972234343
