    26
        -50.47243380  Gyration_radius:  2.45591411617 Dipole_moment: 4.347
 S           0.86194490210966   -1.03042458425451   -0.29964308047038
O           1.17274722567794   -0.01796585672957   -1.29646828884156
O          -0.54315253153320   -1.38182557172661   -0.28779522267033
O           1.30023185616093   -0.60127145033715    1.03849833501347
O           1.69849101140810   -2.28827230287272   -0.68555628060450
H           1.63818037898341   -2.86038907212067    0.10244724397911
H          -0.12576838076562   -0.35640083440513    1.88968511610046
O          -1.05826210914536   -0.24895372993416    2.17952092770200
H          -1.51491644830254   -0.95706907794810    1.71189098254337
O          -0.34495506224979    0.95173035452055   -3.26650719038125
H           0.27356221558706    0.50640736654818   -2.65363988833566
O           1.58458795300241   -3.08706897637968    1.83673711767539
H           1.48351256725721   -2.11432403504770    1.80738270349946
H           2.41165037226483   -3.26652137032450    2.28916500933622
O           1.15055458913790    2.11745900152910    0.21576635797609
H           1.56653565771755    1.74018858555727    0.99682770930696
H           1.24072841335938    1.40413479815468   -0.45696681168172
H           0.09152896951315    1.75885098489512   -3.54320915765497
O          -2.19465431572292    0.38720925651555   -1.38833078789543
H          -1.72126916317117    0.63946248951611   -2.20494497842141
H          -1.70310552709723   -0.39575394388115   -1.05746832485416
H          -1.85091874295428    1.35621976197255   -0.25905671745358
N          -1.47031460937633    1.85513991242688    0.62305836332851
H          -0.47033422381603    2.13436303148201    0.43964933531594
H          -1.43318713063277    1.10986279366457    1.37340031622025
H          -2.04341784740982    2.64521244918488    0.89555721126723
