    26
        -50.47318300  Gyration_radius:  2.44978816678 Dipole_moment: 4.448
 S           0.52925452312328    0.48989234811533    1.19659031336030
O           1.17789696887150    1.01870486280454    0.00086426040091
O           0.66411834113848   -0.94282333176027    1.31062397134085
O          -0.88223475060995    0.90484716756798    1.22306551463209
O           1.22499601691688    1.12243391350645    2.43978496361689
H           0.95328742281334    2.05934755036617    2.40231392560744
H          -1.75206036614401   -0.52948697510824    1.16630914839737
O          -2.02636097605719   -1.46410029151426    1.03677029915452
H          -1.32919389924328   -1.95820043453831    1.48221497466390
O           2.62874744741726   -0.29361837195632   -1.81109452472559
H           2.22766902868914    0.23195555675258   -1.08951234926817
O          -0.24554498169674    3.29695514019472    2.06729638205991
H          -0.69262496150052    2.52486015927070    1.66366003775699
H          -0.78367112252621    3.56713386046989    2.81461914173975
O          -0.85957407330216    1.06983357408338   -1.63043190082837
H           2.53150449473113    0.23397531811749   -2.60540700954852
H          -1.52439248255576    1.46082867493682   -1.05708958529696
H          -0.02794072817121    1.12825509830787   -1.10188326159080
O           1.18577834781261   -2.36437391563800   -0.89045664589208
H           1.12862289482586   -1.99234214304585    0.01366921496191
H          -0.22013843832351   -1.97744870547767   -1.35834621404053
H           1.83483221507953   -1.78790080946127   -1.34222704810091
N          -1.21299442728107   -1.56854313755995   -1.48741117280394
H          -1.11286892195416   -0.54142608673166   -1.70380597050109
H          -1.67803553011918   -1.63090485586685   -0.53794827290525
H          -1.73907202193051   -2.05785418583167   -2.20216819219843
