    26
        -50.43839738  Gyration_radius:  2.49479715073 Dipole_moment: 4.104
 S           1.65107076693811   -0.74854692371521   -1.02894122058850
O           0.97467402421397   -1.42744896742046    0.03845252983993
O           2.71601401042192    0.14487115861514   -0.54414687074726
O           0.75162555934696   -0.02483218409625   -1.91913729626167
O           2.37306358459558   -1.83364377220614   -1.91011211275827
H           2.74582544496698   -1.31530217655924   -2.61618861086661
H          -0.03500291191801    1.08287655497939   -1.15635020656075
O          -0.40728058706392    1.82407211457409   -0.59298147839189
H          -0.63560423256513    2.53094358694284   -1.19998599097194
O           0.57118136996512    0.60087901644641    2.88531574437537
H           0.40299148725460    1.14331793661261    3.65818066623028
O          -1.51246430384255   -2.08429933587417    0.62963372059592
H          -0.59113369076169   -1.90942350927022    0.34031955432658
H          -1.45568312602474   -2.79414541710390    1.27117442060918
O           1.66245873521970    1.77523736008321    0.95162350268284
H           1.31207304035031    1.26410003661904    1.79880433577156
H           2.21562963172661    1.06527913132848    0.34708372418977
H           0.84107955933191    1.95751227032344    0.39486530607832
O          -1.63856160779743    0.42785705392606    1.55137770637269
H          -1.73562758643811   -0.50280173308988    1.25003029573900
H          -0.31830668143627    0.44926207595183    2.43924719962934
H          -1.43087929910786    0.93562863448813    0.75527318745956
N          -2.26656886023378   -0.69874225473531   -2.06939298737764
H          -1.28237922923819   -0.57364458186105   -2.28245584729117
H          -2.32217065275433   -1.43764370820735   -1.37734638477851
H          -2.58602446515435    0.14863764324925   -1.61434287730351
