    26
        -50.43839811  Gyration_radius:  2.49644266762 Dipole_moment: 4.135
 S          -1.15675166687796   -1.49443627276682   -0.88409458604805
O          -2.42836733862237   -1.32454077957622   -0.16142301353142
O          -0.05117800615577   -1.73756718848578   -0.00297327376914
O          -0.94030225056271   -0.37549106611174   -1.79303817670431
O          -1.34653077487800   -2.77064073453493   -1.78423000494186
H          -2.05605258739532   -2.51293341705219   -2.36412920167075
H          -0.73659140083657    0.96246172669407   -1.02067577945829
O          -0.72027931595626    1.77367788075002   -0.43166939809842
H          -1.00553681379508    2.50685767784870   -0.98062954479252
O          -0.30017313041845    0.13061376036550    2.98604048824517
H          -0.31362286196668    0.65669821926114    3.78783325740154
O           2.46271617827252   -0.95611402933485    0.19433277212741
H           2.89836023278639   -1.60014979427133    0.75482198603418
H           1.55575495732946   -1.30011511228954    0.04526139811741
O           1.40426417233771    1.20740607259178    1.36499933704713
H           0.44434551919051    0.49386062758494    2.41440357639249
H           1.92273751108478    0.48162418621678    0.95143019047418
H           0.82920970195719    1.54400114374036    0.66447294508894
O          -2.15629864037806    0.58142049011629    1.35402429809594
H          -2.34486200352072   -0.30087726693978    0.75100869159118
H          -1.45232677532688    0.31889615021666    2.08615665466602
H          -1.66251952734915    1.19035815141637    0.71894339038816
N           1.90640081997841    0.66649182116980   -2.41963241450790
H           2.45685166290676    0.05988051393810   -1.82206959460158
H           0.98235174451265    0.25190523563044   -2.48237996263773
H           1.80840057368211    1.54671198382461   -1.92678408490701
