    26
        -50.45234088  Gyration_radius:  2.45881578564 Dipole_moment: 5.680
 S           0.83823081588102   -1.59494350449487    1.23137137168593
O           2.27547215088967   -1.30879149201071    0.80853466651686
O           0.36219938581294   -0.26841833831495    1.88798547907919
O           0.02297483609190   -1.79087691555704    0.04236195378036
O           0.79072671456316   -2.64308568610319    2.18196437481637
O          -0.23993701856038    0.87034817449646   -2.10429999205815
H          -0.24670909774166    1.36002185206194   -2.92756218411819
O          -2.58332683223884   -1.40646900410678    0.21934892415516
H          -1.64017116931770   -1.68012813054744    0.19215367140289
H          -2.97315056395827   -1.85830694698627    0.96870071308373
O          -1.30977492376021    0.98486717505590    0.40361557450288
H          -0.93602813275281    1.06114656084832   -0.49411230124807
H          -1.98985675823423    0.28661532845189    0.33968362081458
H          -0.27480591998575    0.25037068785939    1.28949628605476
O           2.06309739911781    0.76094883999532   -0.60545086339702
H           1.29638119887781    0.72796665743731   -1.20569478062481
H           1.85390036329746    1.46767611086178    0.05885352549823
H           2.24628860315220   -0.49044260418235    0.18407330550733
O          -1.07752871341678   -1.60341903893157   -2.40825239553370
H          -0.54181690074865   -0.05266264112252   -2.31477084173049
H          -0.51109991094545   -1.91163476031421   -1.68155183230714
H          -1.97400356181313   -1.65001284354377   -2.06016923258137
N           1.25603466486308    2.50866460450361    1.28273276990936
H           1.33310203019371    1.91700058388492    2.10177329735723
H           0.26813376967828    2.66512195787249    1.12081574754788
H           1.69166756105541    3.39844338288615    1.48839911188418
