    26
        -50.47250315  Gyration_radius:  2.48731459228 Dipole_moment: 2.884
 S          -0.79798031070284    0.89507535394022    1.92525488041143
O          -2.02392157823476    0.20103546981779    1.55013153326670
O          -0.15013118228481    1.50854586577822    0.78176966639167
O           0.08634296855953    0.05279123657547    2.70766815521433
O          -1.22998796876761    2.08498655996119    2.87765018284360
H          -1.50401509757657    1.60743778324468    3.65309452395040
H           0.78744818176614   -1.08204483505851    1.83619005071772
O           1.26381105430385   -1.74166729710771    1.26678095855362
H           1.51037670641553   -2.46243584209731    1.84816037552180
O           1.51667448547398    0.08276221727621   -2.29834030772669
H           2.24011413822478    0.18859391658825   -2.91633896862479
O          -0.70884651125873    1.64717250753447   -1.85579698042872
H           0.09267742423197    1.20671884133988   -2.19294896261090
H          -0.49839996879627    1.87255711933538   -0.93074529439802
O           0.13091249374702   -2.03084112077880   -1.20359857862128
H          -1.23296663812857   -1.21254659919369   -1.07189772124339
H           0.67176753333816   -1.41452296871833   -1.72969227875030
H           0.53531926664258   -2.03389374096240   -0.31541472676141
O           2.27675518819938    0.59399047700718    0.13996294438443
H           1.87999323607131    0.31455131187601   -1.39456355731036
H           1.47908075664403    1.06534840606670    0.45409969784216
H           2.23455055139220   -0.26913379959371    0.57723918236048
N          -1.98655160578814   -0.47089419478873   -0.96841340968927
H          -2.87377105761455   -0.77918000180946   -1.34874537511303
H          -1.62272241833697    0.40483453801219   -1.45246380646443
H          -2.07652964752082   -0.22924120424772    0.06095779628416
