    26
        -50.46309507  Gyration_radius:  2.39423127298 Dipole_moment: 2.608
 S          -0.19489228784691   -0.50396215461734    1.46524029607241
O           1.08749693135099   -0.05518735324021    0.88957362593403
O          -1.04554276479822   -1.01655325187908    0.39303411638144
O          -0.82594656345201    0.56094205931899    2.21228696111571
O           0.12021929792123   -1.66416560975292    2.43725543657110
H           0.40108960708832   -2.39278607648872    1.81266609245672
H          -1.36104525508999    1.78929103673806    1.36675021616105
O           0.32030077515317    1.18953294288722   -2.22203720293198
H           0.65436371743434    1.79977573670854   -1.42892412594218
O          -1.61459832596984    2.53422138329680    0.75502408308028
H          -2.17562911003439    3.11723210654250    1.26845192893208
O           0.96614071946999    2.37322877280487   -0.10828845437234
H           1.12946388508152    1.54378007019532    0.40236403102790
H           0.11843168874274    2.71324987177829    0.22998530181846
O           1.67523739697287   -0.85896934678638   -1.47040595044972
H           0.82922251082430    0.31796987245382   -2.08536610759550
H           2.61615290776610   -0.68776856086040   -1.55043454239563
H           1.44148190708014   -0.65069423808742   -0.52009574770088
O          -1.92985971663963    0.75183469564889   -1.27089875578729
H          -0.70302575617327    0.98606613029944   -1.93231691231693
H          -1.70447089555827   -0.01221344711414   -0.67488652646281
H          -2.04504516207746    1.50567608870752   -0.66142345980841
N           0.60128956768693   -3.26160826462861    0.42751687370880
H           0.32141739955973   -4.23301492056478    0.38890781087519
H           1.44402690967099   -3.15158584548276   -0.12151529723808
H          -0.12627937400712   -2.69429169772479   -0.00246370118201
