    26
        -50.47250307  Gyration_radius:  2.48731826307 Dipole_moment: 2.887
 S           0.31611689519068    1.17201686956020   -1.91582233259453
O          -0.95015773676574    0.56443056469225   -2.30632390797424
O           1.17415504354988    0.23590372637186   -1.21508436195232
O           0.12373069042978    2.42216479960053   -1.20610114141416
O           1.07020870058929    1.53968413640512   -3.25955157734455
H           0.53140964110759    2.25396653896451   -3.58175833425074
H          -0.43196942495067    2.21388883437609    0.27272402854946
O          -0.71737827264124    2.06280391032986    1.21182311688439
H          -1.16956899480973    2.86335656631039    1.48188124828729
O           0.89291445534084   -1.49592602527570    2.13402752783355
H           1.37832438707861   -1.80192984202223    2.90032728714907
O           0.94238625389171   -2.35257327479254   -0.48537277014626
H           1.25793186896675   -1.51207245336592   -0.86603321429348
H           1.02444400832744   -2.23514524372896    0.47874658888093
O           1.77129676360101    0.81839443020684    1.32306524045258
H           1.71734259100933    0.67320235534500    0.35706452764838
H           1.03877016968334    1.42126965875056    1.51759030751508
H           1.29942926255811   -0.61909030195994    1.87270329032139
O          -1.62089931694814   -0.47845056602131    1.65318882282687
H          -1.38597226386033    0.46263501479629    1.54543612116564
H          -1.70850305987971   -1.08985754354284    0.18153273195612
H          -0.81338275696754   -0.90772695147146    1.98906895048646
N          -1.51695761458903   -1.47793185669500   -0.78867085453669
H          -2.27481978291100   -2.06549922284928   -1.11616876782121
H          -0.59384381809700   -2.00536297122823   -0.73056859601413
H          -1.35500768890475   -0.66215115275759   -1.44772393161567
