    26
        -50.46570292  Gyration_radius:  2.43024253695 Dipole_moment: 4.255
 S           0.34171703749959    1.81143782341576   -0.68767063563636
O           1.29399982922343    0.92142398999933   -1.34746408773127
O           0.54626853972519    1.83974373480887    0.75377483769461
O          -1.02539203682107    1.56339031566985   -1.07921165024250
O           0.69451070795822    3.27568655493195   -1.18336149236445
H           0.37687135952560    3.29448958766015   -2.08089786966220
H           0.94918950107417   -0.82249518990148   -1.83173677391211
O           0.63044265266284   -1.73613004230542   -1.77123433239880
H          -0.34729392164867   -1.65115517147582   -1.81384274651458
O          -1.61757691926822   -1.35827337904087    1.42440687608665
H          -2.23323026972141   -1.77797008429635    2.02643392925818
O          -1.90817832017217   -1.00952501481576   -1.36247470498666
H          -1.95641135198244   -1.25688404815435   -0.42682846314300
H          -1.69078269955253   -0.06173901432801   -1.37332674675987
O          -1.93035535922755    1.25581896625142    1.49562695711685
H          -2.28609344026981    1.43943428493472    0.61796137736344
H          -1.73713491488697   -0.37851017073131    1.53627304004274
H          -1.00932955748940    1.57137835554437    1.43056026835654
O           0.89527364930033   -2.24209070248040    0.78600842767083
H           0.82194685397998   -2.24676654827453   -0.20875764308142
H           1.74778039717606   -1.05218428094175    0.92247714838924
H          -0.00048067127325   -2.01713847279234    1.09938301012306
N           2.28122929261108   -0.08906477361911    0.82776448812832
H           1.71288786127623    0.66787669589168    1.25476489323545
H           2.21680719995220    0.18012507047859   -0.18291957141216
H           3.23333458027471   -0.12087848642720    1.17429145439619
