    26
        -50.46570289  Gyration_radius:  2.43008986347 Dipole_moment: 4.253
 S          -1.52978246487256    1.22667102806700    0.15638728363362
O          -1.31601697783249    0.61897231909099    1.46238740391052
O          -1.89027079313836    0.22854440780906   -0.84743756070921
O          -0.45459942251311    2.09073651303442   -0.26948067140870
O          -2.80645856339945    2.15005752489622    0.33523453323068
H          -2.81894947189966    2.67607509036082   -0.45843486596794
H          -0.71196822295547   -0.55089374690608   -2.02865699790675
O           0.09284255824031   -0.97646769789257   -2.36215242200668
H           0.76702271940049   -0.26232501150248   -2.34033801381142
O           2.41671571240668   -0.33403736353989    0.73469776371803
H           3.29395560309928   -0.41597277886283    1.11060625716561
O           1.67948786616897    1.04080050064785   -1.61902918999213
H           2.11556766025787    0.58741754795401   -0.88199392135400
H           0.94355177368903    1.53839892878786   -1.22338486020232
O           1.09898138213020    1.60162169870688    1.94033652925280
H           1.02037681890300    2.25713664229217    1.23689369198576
H           0.19860907499416    1.23001301380166    1.99659880688933
H           1.94738349219581    0.36399008111558    1.26316722798855
O           0.88345817483442   -2.36221821089593   -0.28408558489953
H           0.67459733055829   -1.97796832652586   -1.18067041742674
H           1.50702792598202   -1.72898411430356    0.11761071432373
H          -0.43662370965019   -2.17022558637918    0.33235576501675
N          -1.44319995062387   -1.84230365396706    0.65028217748620
H          -1.82906145450980   -1.27855993594760   -0.14364959926523
H          -1.35631380715044   -1.10241963332063    1.37415182091099
H          -2.04633325443964   -2.60805923647386    0.92860413933790
