    26
        -50.46999632  Gyration_radius:  2.46252753067 Dipole_moment: 3.044
 S           0.02323962585054   -1.74322266163226    1.36542919797394
O          -0.73860321195554   -2.73265924924841    0.64269530480741
O          -0.73563701346321   -0.62784430245343    1.87093916980508
O           1.19819441580501   -1.27109424980975    0.61067197118381
O           0.63192912090775   -2.51839646624968    2.61769273146316
H           0.24160093137396   -3.37821385466169    2.50304196773693
H           1.07644830859443   -1.24168256526057   -1.02594127866530
O           0.94560655761417   -1.12728162828268   -1.99837850170448
H           1.38675397398539   -1.86638329766556   -2.41855657560003
O          -1.71930289678621    1.64017730426217   -0.87190232848109
H          -2.55430086224403    1.93042309048455   -1.24084121354992
O           0.84288479880144    1.63407308355186   -1.87540533454252
H           0.91855971153584    0.70298057122762   -2.14276046044471
H          -0.10145816891649    1.77263007046023   -1.67546529985575
O          -0.79313542863382    2.01086463652951    1.68486859956072
H          -1.26590987447900    2.06772412310215    0.83460225602680
H          -0.92807193559341    1.08475148124748    1.96800219606996
H           0.65608822524986    1.73962634740282    1.17083020263871
O          -1.67287886347151   -0.96920146151303   -1.12290338733731
H          -1.52550089180683   -1.61168761581732   -0.40503865178194
H          -1.75396074260621    0.64654971348235   -0.87012667085772
H          -0.90346247135076   -1.07553879767511   -1.70373992050162
N           1.51731076020105    1.34914814426052    0.66251917540198
H           1.40091848056535    1.57529950359635   -0.36838481577343
H           1.46736095275413    0.29950525896128    0.74756659706190
H           2.38532647807822    1.70945283170369    1.04058503936228
