    26
        -50.46999648  Gyration_radius:  2.46254723557 Dipole_moment: 3.033
 S           0.44453251614004   -2.14430216478266    0.32856819234701
O          -0.11709512912651   -1.48984679857385    1.48265433736710
O           1.88598019345699   -2.18933922505228    0.28419841569738
O          -0.14402609758071   -1.60477822456808   -0.91064311415894
O          -0.01953568634770   -3.66842277877486    0.36570234898932
H           0.82154288824687   -4.11081038088801    0.40893551062437
H           0.72884210175340   -0.48172526952793   -1.72948837861582
O           0.32664971975455    2.16877376546069    1.26330342697716
H           0.79047162595295    2.82451105375323    1.78528762048491
O           1.21639459263788    0.26934308556138   -2.14672088948873
H           1.66608871210991   -0.09278296448388   -2.91100216853998
O          -0.60215952307174    2.18542947172548   -1.32662868113953
H          -0.26391913045895    2.38780576245616   -0.43464410336892
H           0.10185311268408    1.67739223874177   -1.76294458883088
O          -1.72479861804858    0.52995403139303    2.06285266647019
H          -2.10053751785574    0.31229739188945    0.56280064348195
H          -1.18322559790785   -0.28303301085157    2.10477038398683
H          -1.06881251745908    1.24467209634526    1.97064276336371
O           2.14081224588131    0.45788687551548    0.45303456367501
H           0.99763397945483    1.46655287549334    1.05092021682676
H           2.11866300792461   -0.50735422118702    0.58579160746564
H           2.07137837443632    0.57105299291056   -0.50772838739950
N          -2.07090982950475    0.15242499121143   -0.49832729297670
H          -1.39601621907826   -0.64009498813672   -0.66517875703877
H          -1.63496943950284    1.01793252751304   -0.93245625029532
H          -2.98483774449023   -0.05353912314322   -0.88370008590206
