    26
        -50.46999643  Gyration_radius:  2.4625294844 Dipole_moment: 3.039
 S          -1.73412935714495   -0.03687651560503   -1.37660662641283
O          -2.20272351676942    1.32733331439458   -1.34645748185255
O          -1.94530570698682   -0.78899861297988   -0.16611823538727
O          -0.33080259814768   -0.14403646878388   -1.81493029136478
O          -2.57388767484588   -0.74100452071673   -2.53353017819637
H          -3.15667055034840   -0.03355604219742   -2.78821766494294
H           0.66886985396900    1.10438299230613   -1.44526485026309
O           1.27782429559350    1.81037964172979   -1.11882978426632
H           1.43746932939854    2.39347040708497   -1.86175255383891
O           0.38010623375612    0.30858157164666    2.48307787328551
H           0.27785733369126    0.70606629858202    3.34859678313970
O           2.51130473319085    0.18323471991344    0.74699479047920
H           1.90318392205338    0.27898232846456    1.50329262883111
H           2.26474313870459    0.88681879536207    0.12384697307349
O          -0.72793337495488    1.96452367016538    0.77892400605659
H          -0.13514919936965    0.88423159193421    1.85732395413875
H           0.04035564382092    2.19487888288692    0.23361679542754
H          -1.42505205139971    1.74302781715612    0.13481519020366
O          -0.54677964552873   -2.13153795411501    1.63466047598795
H          -1.26825108222955   -1.77006476144428    1.08253211709351
H           0.49083184718112   -2.08975981919318    0.46833767322380
H          -0.24470007187101   -1.36606332371440    2.15666472614028
N           1.12397463981443   -1.78284488210926   -0.34242856701559
H           0.51801594966583   -1.23210453915192   -1.00649794714558
H           1.56308992027415   -2.56806128872564   -0.80808885610367
H           1.83375799848340   -1.10100329288838    0.05603904970765
