    26
        -50.45059456  Gyration_radius:  2.46317994866 Dipole_moment: 4.137
 S           1.41179986588138    1.16504294001779    0.80826511784758
O           1.09058891878729    0.94351492218496   -0.58869281792970
O           1.47629198416151   -0.22150489703382    1.50652408940742
O           2.60867483595001    1.87515577351750    1.06179636261472
O           0.20149359032253    1.83732741149777    1.47772597952476
O          -2.05758811909820   -0.78064202788341   -0.49572531333497
H          -2.78484458368539   -1.26312809506969   -0.88973078320541
O          -0.23115114874450    2.75249985634986   -2.05402272223536
H           0.24577485393692    3.58348784776080   -2.03240363809619
H           0.37474868072727    2.07494789775627   -1.69797434744988
O          -1.77411519957325    1.88068636759414   -0.05935448164870
H          -1.39942805051965    2.29564178167053   -0.86743451434167
H          -1.96749779720479    0.95217688463599   -0.30079748447078
H          -0.62793777009480    1.87475288285519    0.84145149002663
O          -0.99680783528632   -0.74628266195854    1.95427697184369
H           0.52595406855947   -0.49037936545781    1.69976536702742
H          -1.32393347979511    0.07019402965411    2.34217406615349
H          -1.45573593189508   -0.84976044310830    1.09095850191398
O           0.15111009762472   -1.36299935320945   -1.65509867852567
H           0.61186365741638   -2.03206015439602   -1.09699167065310
H          -1.22594485631416   -1.03551854756875   -1.01586481006593
H           0.60231764665112   -0.52360283940113   -1.46205068683592
N           1.48846938499176   -2.91248707724764    0.14577626192152
H           2.28412413019991   -3.45276935920225   -0.16945636105339
H           0.93585456871838   -3.49915456803526    0.75826853964849
H           1.83591850828367   -2.13513922592403    0.69861556191976
