    26
        -50.43974040  Gyration_radius:  2.43004115826 Dipole_moment: 3.733
 S           0.01165675212234   -1.51200623738292    0.98366557272157
O           0.62437249835389   -0.30930783832242    1.48746590663632
O           0.00711419480852   -1.59325504032680   -0.47426762225544
O          -1.32647200910294   -1.74123529204741    1.51367535389501
O           0.89152687609839   -2.72930859565996    1.49331029115915
H           0.29035939457109   -3.46795077052876    1.47047829858968
H          -2.22891749631175   -0.61861423142164    0.93288594341573
O          -2.73807837237863    0.11190633462550    0.46868812440871
H          -3.63137811560722   -0.22034468160024    0.35763010432009
O          -0.22599540938713    2.59234176653741   -0.94881854449230
H          -0.75791692503687    3.34576752892015   -1.20816253927969
O           1.47171360972301    0.67348612967865   -2.09335006011653
H           1.99130240626648    0.04951003882498   -1.55418940052681
H           1.61479851193561    1.53864386359284   -1.70372315401005
O          -0.81169419019982    1.93575487782417    1.51519919602228
H          -0.36596178770270    2.45674874294953    0.02707043812799
H          -1.68483662348109    1.53097981458817    1.45944761269463
H          -0.19162725360690    1.19071981429077    1.64806403934295
O          -1.17807471720483    0.29282084391336   -1.57374735482212
H          -0.62451509081857    1.15712589559756   -1.49934558264124
H          -0.54896074394097   -0.48952430747821   -1.27600882519448
H          -1.88236497430078    0.30916066648476   -0.84375613165900
N           2.82563990901841   -0.94707396896295   -0.25982627283501
H           2.46676348768872   -1.85561245860637   -0.52576430753535
H           2.23850961065130   -0.62390197335547    0.50241809931994
H           3.76303645790426   -1.07683090213404    0.10096083466703
