    26
        -50.43974035  Gyration_radius:  2.42977469906 Dipole_moment: 3.746
 S          -0.58140078823757    1.63959360602107   -0.47056726044627
O          -1.15317057901205    0.45791579316605   -1.11033506912075
O           0.77134792285054    1.44515379548736   -0.01474262088039
O          -1.47205361153940    2.14085788040192    0.56842211432183
O          -0.53846261678732    2.76931085542268   -1.58307914091057
H          -1.42495715360982    3.11810908228863   -1.58500175871421
H          -1.61475600125769    1.00143159484632    1.61425786032112
O          -1.68264808812657    0.19158059682061    2.20399189026495
H          -2.55380038183065    0.23045409270979    2.60432589431608
O           1.11686596804190   -2.20034957179242    1.25646577143372
H           1.11929062345237   -2.85148218648034    1.95921665551002
O           0.71546029615077   -2.04899940395046   -1.51544661621149
H           0.88068546759228   -1.23435909924561   -2.02427733613154
H           1.49045149564695   -2.17554320460578   -0.96395338654525
O           1.16707386805481    0.19590425850987    2.30640699983822
H           1.18647267044453    0.73844289827938    1.49252241547666
H           0.28383405958543    0.32031102250320    2.67212964070526
H           1.27815103640591   -1.31357641462679    1.67825660542788
O          -1.19664582002138   -1.54266475468803    0.36167461004473
H          -0.24594167251312   -1.91449681827046    0.49161172103516
H          -1.42284443106528   -0.97434319359929    1.17099996103350
H          -1.13797870638466   -0.83855635269562   -0.41116926675468
N           1.29315520891790    0.43521622212861   -2.66317487328296
H           1.36092293999205    0.87270266077376   -1.74985204657000
H           0.37681454676071    0.67385321684821   -3.02154624124804
H           1.98413373650349    0.86353341373834   -3.26713650290241
