    26
        -50.45234083  Gyration_radius:  2.45885078507 Dipole_moment: 5.680
 S           1.96907018133762   -0.06458598902986    0.93763636991442
O           0.68750666689958   -0.26827092075637    1.79403148273539
O           1.59700545686613    0.79315465964192   -0.17709369957451
O           3.01869995456219    0.41993816985653    1.75502929822199
O           2.29116468536254   -1.45839983946684    0.40846787278505
O          -1.19858710603243   -0.10701248781402   -1.94762724456836
H          -1.76041686435944   -0.29413751291241   -2.70056262374260
O           0.12546244141811    2.93133538041276    0.30692318940076
H           0.78237601222806    2.21744478989502    0.15177285812486
H           0.46584526594806    3.45750112143060    1.03146886410256
O          -1.38975114899248    0.70442210295144    0.65091441671676
H          -1.42935054967460    0.36851015041348   -0.26395595473462
H          -0.14562815297308    0.08531522391019    1.33114116203425
H          -1.08564349612442    1.62929767053734    0.57161381139282
O           0.56523288264830    1.77346553775159   -2.46325201672708
H           1.20079310135383    1.38411481527683   -1.84003390788705
H          -0.55051529897396    0.58868239987248   -2.23659478225568
H           0.26132338728487    2.58061838023845   -2.03531303654527
O           0.15266089392456   -2.16053593979398   -0.71500493765010
H          -0.46125585691488   -2.31959223087360    0.04809270737705
H          -0.25175679828927   -1.44178231245482   -1.23374462994106
H           1.45976500498896   -1.78242366134467   -0.10570401787618
N          -1.45627615142891   -2.30540116014756    1.44402268597064
H          -0.77345214455638   -2.13090332584084    2.17209929617088
H          -2.01260167976155   -3.10687841837573    1.71226574012996
H          -2.06167069674677   -1.49387660337428    1.40340708643306
