    26
        -50.45234090  Gyration_radius:  2.45886303429 Dipole_moment: 5.682
 S           0.85218901826874    1.45967722553116   -1.38040336685373
O          -0.32111942768603    1.86236099229825   -0.44312607574464
O           0.70838016262407    0.03630903166531   -1.64515867452768
O           0.85901949191842    2.29433040848766   -2.52395497346157
O           2.10136457195148    1.68541315463661   -0.53482593426746
O           0.26882981162487   -2.00280443374213    1.07715010162794
H           0.38731470243200   -2.74868468183275    1.66639803408467
O          -1.68483363549515   -0.90288079705081   -2.24693397988695
H          -0.77996202575159   -0.53043459256855   -2.15922038740282
H          -2.12121590372739   -0.39189943575232   -2.92968027364616
O          -1.63642849336408   -0.18124559786523    0.37073531163858
H          -1.90367112231395   -0.53134099061150   -0.50112268292049
H          -1.00822067940851   -0.83631737382796    0.72804390934307
H          -0.82590942243586    1.05409898350633   -0.08936886120510
O           0.66320711378216   -2.64847335776003   -1.44099337112782
H           0.97642772114543   -1.75245335538293   -1.64834629180411
H           0.46239935417217   -2.32717741483140    0.15806132054970
H          -0.20038749740025   -2.71230236669438   -1.86186053847767
O           1.65447837618416    0.32803863649476    1.53548237451019
H           1.25965872574407   -0.54019416904813    1.33669227951373
H           1.99554936110721    1.11257906138169    0.31439319643599
H           0.94498089931301    0.84658087439619    1.99625274725346
N          -0.43594140056061    1.71055466503242    2.53013756108346
H          -1.25950654814416    1.14766688089571    2.35208760882927
H          -0.45468666613374    2.48139466615263    1.87255413745294
H          -0.50191650785417    2.08720398647914    3.46700681899659
