    26
        -50.47304667  Gyration_radius:  2.48581493946 Dipole_moment: 2.178
 S          -1.51987134299413    0.85532785233621   -1.20854011004552
O          -2.24627257548153    0.15305276157665   -0.15689409593743
O          -0.33273585452230    0.13625525878518   -1.63007864095854
O          -1.27275159407592    2.24204673183232   -0.87071590313802
O          -2.47905255444019    0.87055595876258   -2.47125286559905
H          -3.13477703439989    1.51283788537760   -2.22105508762996
H          -0.12819299926065    2.45273417966375    0.23540784307406
O           0.56200187387709    2.47407299944482    0.94756463863709
H           0.59012391258882    3.37786953734980    1.26551721067091
O           2.84547548299158   -1.37913058830041    0.23420072770985
H           3.15468858747344   -1.87176304026195   -0.52747403849161
O          -1.19762316929223   -2.19299813327776   -0.81213885952203
H          -0.73414689655634   -1.55345030490789   -1.38707441437095
H          -1.91689181394257   -1.63844222333284   -0.46344081676667
O          -0.68607552331720    0.28187734234245    1.98734783662152
H          -1.38067852101537    0.27791572292762    1.29474435567634
H           0.06942077397144   -1.05814547764911    1.64984170888320
H          -0.14956878463996    1.07394695966010    1.80440787297524
O           2.08438708828928    0.91086323972956   -0.75582677483056
H           1.79804366738723    1.54640771527365   -0.08239825371548
H           2.64804573544127   -0.46150695955209   -0.10656264320008
H           1.26216982039143    0.65292770015639   -1.21528340978072
N           0.45667709527137   -1.96552584438211    1.24217274950340
H           1.43364419462708   -1.79083360645179    0.88036251491757
H          -0.18104641411826   -2.20666230876718    0.42652681739849
H           0.45500685572280   -2.70023332836555    1.94064163787048
