    26
        -50.46194773  Gyration_radius:  2.51156223789 Dipole_moment: 4.781
 S          -0.50773611216096   -1.99229067150990   -0.52534336659403
O          -0.07266971820417   -1.65533438923753   -1.87693935861151
O          -1.48274564375057   -1.05341760388422   -0.01357503186164
O           0.62149741606037   -2.21053942940840    0.36090991397238
O          -1.26345947469241   -3.38157494983631   -0.63063838877228
H          -0.57887388014317   -4.01031039820832   -0.83965021174598
H           1.53157564393999   -0.90531755642466   -0.18434685424283
O           2.05424997325781   -0.13526440922317   -0.48713675556131
H           2.43623414027457   -0.40506942883812   -1.32444972424347
O          -0.53391715329184    2.82516644938411    1.15875551633190
H          -0.17790333215483    3.35779120150543    1.87039290316001
O           1.42555097644494   -0.67554934300696    2.48115806620100
H           1.15065839456322   -1.40342709271316    1.89974231852812
H           2.06599195090648   -0.17384500182113    1.96947721543578
O           0.72854864811624    2.16585942044779   -1.05744899932141
H           1.31789150472668    1.43714174688640   -0.77648685497699
H          -0.39918195063665    1.40475737470643   -1.64497973426725
H           0.32342141379025    2.52327412586718   -0.22984192063890
O          -1.03070500801431    0.46960138261489    2.20677970270721
H          -1.32397132652239   -0.12492245263346    1.49733101962783
H          -0.17302099258917    0.10659304583703    2.50331351751966
H          -0.78625608242226    1.95536162333190    1.56973314791812
N          -1.17183097694389    0.68253101142283   -1.94565209567771
H          -0.68321660608683   -0.21482441705699   -2.21317640724270
H          -1.78864022549024    1.03581191585787   -2.66844639169655
H          -1.68149157909017    0.37779780589441   -1.09948121599436
