    26
        -50.46194806  Gyration_radius:  2.51140771844 Dipole_moment: 4.771
 S          -1.51959661663312    1.42761816280144   -0.39566068404877
O          -2.44706079393563    0.48489772396925    0.22115620162641
O          -0.73667925817434    0.81653771211737   -1.44820083599530
O          -0.72534834170546    2.12516379502643    0.59995554924989
O          -2.40731348034882    2.53175199144257   -1.10629935888355
H          -2.80536988125600    3.01577173374481   -0.38874777927962
H          -0.41509518454058    0.77690789805113    1.55662472538437
O           2.34245617849946   -1.88825256152714   -0.74142679075730
H           3.26612986618455   -1.97352424904262   -0.50408836825668
O          -0.21647942373118   -0.00946060763009    2.10438772760992
H          -1.01666094870266   -0.17399508570980    2.60680417812850
O           1.96312906152230    1.90522301984419    1.07322925425539
H           1.85978779523085    1.24922368950260    1.76812534726992
H           1.06493927289506    2.22891157037888    0.89488002201805
O           1.98609597690097    0.64356349574215   -1.34095200795269
H           2.16792819936616    1.15318290697928   -0.52694238905428
H           2.22258676347130   -0.94553333814264   -1.03410307054820
H           1.04229205479172    0.78398363644445   -1.52067014778552
O           0.28487811588560   -2.35840611461207    0.83619261277175
H           0.23388377021471   -1.55444715044177    1.39152070042424
H          -0.74816231084361   -2.06061500172943   -0.18412762335012
H           1.11822188099810   -2.27522746239272    0.31176513208598
N          -1.46998963378997   -1.63198942997591   -0.89408807646269
H          -2.08841684154273   -0.96507659710595   -0.35764596985296
H          -1.98772965095933   -2.33452193564747   -1.40989020115845
H          -0.96842656983926   -0.97168778218890   -1.51179815750785
