    26
        -50.45582066  Gyration_radius:  2.5804915643 Dipole_moment: 3.669
 S          -2.29159986553938    0.65878730252873    0.12408289674177
O          -1.42413786481479    0.09811034455919    1.14222221443702
O          -2.70359268156558   -0.35003199552097   -0.84954675951938
O          -1.76047487742231    1.84710281512435   -0.51239231642463
O          -3.61051210007443    1.11590139412877    0.88157826713544
H          -4.06001572303965    1.66280937319463    0.24404246523079
H          -0.41234040077302    1.41989893045863   -1.21911150097300
O           2.23201261295127   -1.48075144122077    1.02599932896736
H           3.09422667067054   -1.56352942602725    1.43271866505237
O           0.42130345864288    1.15901286648337   -1.69635367885688
H           0.33079826894055    1.51994805996783   -2.58038659669411
O           2.18833517996385    2.19117826598918    0.13725764447412
H           1.55288557724566    1.91219095934964   -0.54698643021070
H           3.04188248106533    1.84022758879102   -0.12196953233425
O           1.07538368594973    0.61425949459741    2.09243476399584
H           0.13302782676351    0.53970748123507    1.86700872557891
H           1.78448177579737   -0.71801080142171    1.48577143984672
H           1.42882588937581    1.33497845211512    1.53852223678116
O           1.19156303752221   -1.45829453184060   -1.41916419869072
H           1.74730981364816   -1.47405893203324   -0.61027475426964
H          -0.08867808994903   -1.97225364155331   -0.75095905184254
H           0.97816976618602   -0.51995084928506   -1.58122920761000
N          -0.98634047384622   -2.11939200414930   -0.16584575328480
H          -1.18847678589026   -3.09750904589000    0.00725530663725
H          -1.78526971181375   -1.59113580193128   -0.63032021095776
H          -0.88876746998039   -1.56919486762769    0.70564600677680
