    26
        -50.46742649  Gyration_radius:  2.40203023737 Dipole_moment: 4.777
 S          -0.73437299731165   -1.02006212228836    1.17522416903117
O           0.70612441383964   -0.94561884722830    0.93180837756202
O          -1.43623657740004   -0.43150744393611   -0.10773242688560
O          -1.13449711904538   -0.23623406344652    2.31832893602588
O          -1.19868588967881   -2.40519490471736    1.17206365386295
H          -1.12919484888418   -2.69848289292513   -0.23465274717988
H          -0.50552704518186    1.24550232776459    2.30971985394823
O           1.30861437274161    1.48697693733956   -1.64282621096827
H           1.92751672982258    1.99199229852930   -2.17121362204031
O          -0.16807654721262    2.17331920885510    2.19876268835334
H          -0.54819684558120    2.67581149469589    2.92089305580603
O           1.08292745642624   -1.29327005749321   -1.60897037258212
H           1.05586309735177   -0.36358269416931   -1.89282687806365
H           1.11748741732028   -1.22750467217760   -0.62341088879548
O           2.09983687561881    1.31350581986620    0.84817556705675
H           1.53300178443490    1.86183405208292    1.40914233554643
H           1.75451897665633    0.40774899890695    0.98324223889978
H           1.70272645208410    1.43473304034565   -0.72602611139806
O          -1.04184038828153    2.08642373800819   -0.36875456831602
H          -1.34348120224266    0.57111152692717   -0.17908673369592
H          -0.72506442317925    2.31947957358313    0.52522069266498
H          -0.25412411463776    2.02231547423127   -0.93867156402113
N          -1.04994093658358   -2.76104680042335   -1.33654154917878
H          -0.18734341539248   -2.16085127407991   -1.58687476586814
H          -1.88394239761363   -2.32715303214923   -1.72196984907352
H          -0.94809281806479   -3.72024568611669   -1.65302328067784
