    26
        -50.46742650  Gyration_radius:  2.40200733723 Dipole_moment: 4.776
 S          -1.44455685191926   -0.93500638738505   -0.00869613654652
O          -0.31769476410291   -1.16518773112172    0.89519744383735
O          -0.88659740074287   -0.08291231784089   -1.21176136958352
O          -2.50810009501241   -0.19438971208804    0.62497701075886
O          -1.85079103238353   -2.17242864002382   -0.67046988461058
H          -0.76565457523078   -2.33753745398702   -1.59979248455386
H          -1.97757687180686    1.10003527499661    1.42100514709541
O           2.20694742151684    1.30315782369550    0.23037512463513
H           3.04650790124084    1.70613149735303    0.45409003671918
O          -1.60267195717714    1.93375038211686    1.81022390654913
H          -2.35691609816761    2.43709412967261    2.12046643711878
O           1.82065212984968   -1.34481077396013   -0.55902664234336
H           1.10356189040999   -1.38288185143891    0.11989166506461
H           2.08951165598556   -0.41042926677348   -0.54644882959782
O           0.82676321562502    0.71709049168983    2.37799778766774
H           0.07636781692936    1.32303720046045    2.45855263679964
H           0.43004934038054   -0.09560431663059    2.00359806566852
H           1.76709500471722    1.07528560681709    1.09818936796146
O          -0.23821613121944    2.29338999766057   -0.50754171032550
H           0.69985696545807    2.10714248742494   -0.32070030363808
H          -0.69476741532661    0.87485235093121   -0.95680564067138
H          -0.68953298958389    2.36200819767255    0.35585147245358
N           0.11383115668859   -2.31130566323028   -2.27112768508462
H           0.91050280123659   -1.90119332178582   -1.66794981853499
H          -0.10320784804225   -1.66509759828283   -3.02451787863502
H           0.34463673068497   -3.23419039594734   -2.62557771821211
