    26
        -50.47073145  Gyration_radius:  2.48411275953 Dipole_moment: 1.246
 S          -1.40761751331133   -0.91847915954476    0.69875829407351
O          -1.42766977681074    0.32210022984281   -0.05593550022266
O          -0.15517959357614   -1.08072016033353    1.42509938684107
O          -1.75500950521278   -2.08365930163033   -0.08262788136043
O          -2.54892015187483   -0.75373726179880    1.79235509867647
H          -2.75547326507042   -1.64608343147849    2.05214014964908
H          -0.67826698264239   -2.15714518024847   -1.30406093152719
O           1.58596198758820    2.85000112014744    1.36304785681609
H           2.34457703233906    2.75443934107355    1.94062256413413
O           1.93873889059718   -1.27386424558077   -0.23681101556181
H           1.48793488954279   -1.72737926518502   -0.96894935159734
O          -0.44942182433755    0.49368334874970   -2.81290941163647
H          -0.21804195905486   -0.44624516229641   -2.76080886466995
H          -1.17206884510607    0.60057174083406   -2.18447486864463
O           0.02077727170644   -2.15282853396837   -2.00161319862749
H          -0.10415371834710   -2.95814131241127   -2.50716103951436
H           1.32495859243541   -1.35717116201568    0.51814545070109
O          -0.41718794329760    1.38327246759991    2.37798647525170
H          -0.21552851623208    0.44981844287039    2.17486230620704
H          -1.26492692176487    1.54434856205571    1.95605274500040
H           0.83063180459845    2.42724278288631    1.83320580457477
N           1.03361837418452    1.17279236874246   -0.65215260953850
H           0.94824435213141    1.39709045212266   -1.64874833943335
H           1.59291387570141    0.28096387012810   -0.52831474754872
H           1.39951648086362    1.94356011708156   -0.05300838830966
H           0.06159295493768    0.93556936237727   -0.33470000374170
