    26
        -50.47073147  Gyration_radius:  2.48418398184 Dipole_moment: 1.238
 S          -1.75390019647935   -0.34562966175357   -0.34673334416421
O          -1.02181555048940    0.89178263245634   -0.55141333736406
O          -1.18468057042665   -1.12815945682003    0.74230407425693
O          -1.94127204869281   -1.12026548701524   -1.55243494551170
O          -3.20198162902626    0.10655522469140    0.12711021077143
H          -3.75558704643983   -0.64551645827942   -0.05824421935727
H          -0.45048826612771   -1.43922766362060   -2.12834079255122
O           1.33826950732801    1.67618452833543    2.80941998060987
H           1.61050314485472    1.18763800498209    3.58750969452161
O           1.31886214802871   -1.91636611510369    0.19816835799950
H           1.22204148620853   -2.01717146405236   -0.76371330812269
O           0.48101070037583   -1.61526975331495   -2.40516253006651
H           0.40326447053576   -1.85316405189632    0.53164178717813
H           0.42637889079402   -2.20039366490095   -3.16303229267974
O           1.27919496606401    1.07515020214905   -2.36042513540697
H           0.39735999994234    1.37638982097904   -2.11516773777566
H           1.17143452883075    0.12918564720950   -2.54346982514378
O          -1.21218963188148    1.03694977714616    2.27904854144119
H          -1.62102578463688    1.60092737021491    1.61759553404943
H           0.36646589325834    1.53776349316920    2.72702346729981
H          -1.20380883163150    0.14912799537926    1.87307005121918
N           1.49978976095945    0.71687201169734    0.31266907632422
H           0.48732044832820    0.86036892851275    0.07549259336823
H           1.63205051994868   -0.33402443638132    0.34835983352279
H           2.02252485346126    1.10899490873357   -0.47745107736639
H           1.69027824690425    1.16129768747991    1.23617537293511
