    26
        -50.46306614  Gyration_radius:  2.54489338756 Dipole_moment: 3.866
 S           1.53078049758714   -1.40297524564095    0.86735933655138
O           2.17054709568596   -1.14976369782449   -0.42280124166777
O           0.08646578294753   -1.45037338443001    0.74888004813179
O           1.99242573908038   -0.47798126699594    1.88315254610705
O           1.98991363198358   -2.84379115590774    1.32956076797154
H           2.86382222438812   -2.66325300327461    1.65923763562985
H           1.54245596470280    1.13469707965485    1.77169408970144
O          -0.90764188218389    1.19650676288920   -1.75155671692933
H          -1.60670094610344    1.74511351443779   -2.10904051045822
O           1.17272806391641    1.97808748805824    1.42128634092331
H           0.21175137617288    1.86089426456678    1.45896029483740
O          -1.58789589018601   -1.58285771743741   -1.38420760495655
H          -0.95344041576987   -1.73198186095073   -0.65993275862905
H          -1.26697626477370   -0.79773314153609   -1.84584451717953
O          -3.50981925118182   -0.50603916845781    0.15589867256669
H          -3.84655841536017   -1.18333769866238    0.74356759851609
H          -2.93134936662723   -0.97533759209410   -0.49105625492242
O          -1.27352481894437    0.81424715235668    0.82318329166472
H          -2.20386408484638    0.50707135656450    0.77123608896290
H          -0.75799339709956   -0.01782745888744    0.91438524905297
H          -1.09867173117720    1.10111539477192   -0.77564316289844
N           1.69084006570838    1.30889983307527   -1.04803966003356
H           0.78120352389383    1.33912946748294   -1.54791651698602
H           2.42134485511400    1.78247599098821   -1.56733678815918
H           1.54468621002945    1.73344926806389   -0.07135006784755
H           1.94547142300771    0.28156480921087   -0.87367615994049
