    26
        -50.46507291  Gyration_radius:  2.55351487635 Dipole_moment: 4.277
 S           0.36511799853943   -0.07388056627463    0.92962684572634
O          -0.13214933066343   -1.44003073246341    0.84672077273567
O           0.26904975033452    0.59522533948697   -0.37509722148274
O          -0.53145503378330    0.71918795132596    1.91424563288909
O           1.73664288487734   -0.00654186010190    1.41997746647202
O          -3.76457719825658    0.08327620252250   -0.05397861892064
H          -4.63238693570399    0.48219456769558    0.02421301446834
O           2.31706957598288    1.51289410760187   -1.76449942773497
H           1.47666243083520    1.24362309778073   -1.32530426362623
H           2.49785615814631    2.40314560806109   -1.45903131770894
O          -2.45044816423846   -0.92762731630212    2.05164443251635
H          -1.82156949655175   -1.55361872980735    1.65856850699034
H          -1.34201296088219    0.12700129795118    2.08899360322796
H          -3.03973462529306   -0.64852803140204    1.31394973768767
O           0.94520914990464   -2.06898683500062   -1.44557429733736
H           2.36253052051178   -1.41402965712460   -1.05803185165301
H           0.48436190227384   -1.98335697615259   -0.57618154469949
H           0.47251212562264   -1.47056388411630   -2.03048048352908
O          -1.94340720117044    2.04474279411202   -0.19758419242341
H          -1.83668785157631    2.33786073455972    0.71154125217067
H          -1.12836422407365    1.53571924681135   -0.38964570638149
H          -3.13423657825918    0.81995542720565   -0.22644824502110
N           3.08437440611667   -0.76237485481096   -0.63148825825305
H           4.00068851353714   -1.18737490174120   -0.54658801114191
H           2.65924182731863   -0.48456662484275    0.31753835561585
H           3.08571235643936    0.11665459503216   -1.19708619057469
