    26
        -50.46116859  Gyration_radius:  2.61881787525 Dipole_moment: 2.754
 S          -1.88982908112548   -0.47827206706825    1.35507895833793
O          -2.20506471471782   -1.67550840151605    0.62063667274126
O          -2.40157592368911    0.74896722527627    0.75767417349212
O          -0.45165577627231   -0.36940871268924    1.61774249944969
O          -2.60151465022708   -0.57792698550226    2.77007915468009
H          -2.84287353989613    0.32783141747652    2.93736430312826
H           0.34598448062630   -1.59509298751588    0.90721819921116
O           1.39181163364800    1.26383140785937    0.52025747824952
H           0.81989639673403    0.79804284641704    1.15844075994296
O           0.84459660802630   -2.29208335368594    0.40997003035022
H           0.61807416836463   -3.12029569740770    0.83553556990402
O          -0.84239189435527   -1.65381485639222   -1.65932565971226
H          -0.06104449532301   -2.02010780861062   -1.21219068395499
H          -1.54444404140751   -1.76643350941783   -0.98531176536251
O           0.87175072622890    3.28265573143089   -1.44321787482803
H           1.22385465601449    2.83455305279614   -0.66159699732828
H           1.21999644712534    4.17446468346288   -1.42617135053753
O           3.04176606921937   -0.77777857934944   -0.12735910754278
H           3.27189445207909   -0.95398536131593   -1.04082568285299
H           2.12268382595992    0.63940922026705    0.33265254800510
H           2.36772942808410   -1.43705369213419    0.12204194191097
N          -0.66320619052623    0.93814121518475   -1.18835393315793
H          -0.70495792283708    1.67513806504470   -1.88870639544014
H           0.22118218751701    1.06698725920477   -0.63301406150764
H          -1.45273235273598    1.00847006893746   -0.49064862955915
H          -0.69993049653833   -0.04073018069054   -1.58797015768264
