    26
        -50.46166036  Gyration_radius:  2.56748031886 Dipole_moment: 2.788
 S          -2.11525756534781   -0.90812333611369   -0.14308258449880
O          -1.81647165615510   -0.28438030991413   -1.42705649533570
O          -1.64971759337007   -0.07688536624716    0.96580429614528
O          -1.70136743082757   -2.28306076947772   -0.02849757649480
O          -3.70470862047413   -0.90899595618170   -0.04810805579133
H          -3.89859755373439   -1.61807402370324    0.55798390746795
H          -0.47530966887155   -2.50580947681735   -1.25385560604602
O           1.77246864865671    1.82259889658989    2.09595681797077
H           2.48838937218119    1.82654001513779    2.73162790751099
O           1.99187876047735   -0.97915519477808   -0.64594519925357
H           2.78900038874420   -1.49412358501834   -0.77861486531820
O           1.84757479935035    1.74570289790777   -0.55859077707214
H           1.98608236063447    1.89952252528766    0.40359191373440
H           1.99907339642631    0.78978173117044   -0.68772151364032
O           0.06445585852051   -2.13900440979056   -1.98073562609809
H           1.28516442253890   -1.42249953161193   -1.19147602795511
H          -0.49778897936296   -1.42438169953784   -2.30920287601564
O           0.83198260215194   -0.63541546906187    1.86656689896240
H          -0.11635913781580   -0.55606287011887    1.66066175149365
H           1.26029366963236   -0.90152631272646    1.03629032911323
H           1.38211992674762    0.91101673218639    2.12884249198074
N          -0.74429505467787    1.87073615467737   -0.48686127375887
H           0.33903014419699    1.88482921388303   -0.57721221988934
H          -1.16090050820846    1.19531522675133   -1.17466998113960
H          -1.01313832164540    1.39153236368626    0.40205357887994
H          -1.14360226975785    2.79992255383681   -0.55774922496082
