    26
        -50.44694171  Gyration_radius:  2.49323205832 Dipole_moment: 2.955
 S           0.09963984419372   -1.84095368166596    0.91870057196641
O           0.42326913034694   -2.45506682764968   -0.34585910693437
O          -1.09019759413001   -1.01428512140948    0.89919619953982
O           1.23965266010850   -1.10118593898038    1.47559832582074
O          -0.18452840085392   -3.02143347348150    1.93169060563633
H           0.43674359809156   -3.66739676948296    1.61423501888496
H           1.90045199143650   -0.07389730426136    0.74591157603569
O           0.69535784697909    1.45393674828838   -1.51639289414837
H           1.10299180555055    1.88309485194586   -2.26905027171082
O          -2.97315780842788   -0.35032988216390   -0.93733968280066
H          -2.42448164103180   -0.73755596129856   -0.23239685302365
O           2.27590440413951    0.82705154607704    0.34039783116534
H           2.00561546619410    1.49360497242533    1.08935948910111
H           1.66327605687404    1.07296270808380   -0.47099991702464
O           1.23183016763988    2.19914607354325    2.18673373364115
H           1.20865754119906    1.61443849843394    2.94775658246592
H           0.33323002984300    2.12797294825185    1.75848887982783
O          -0.90905124573180    1.64790016130667    0.79166704025467
H          -0.57562648835421    1.75885871687055   -0.10948846835598
H          -3.26033123271459    0.49996828212550   -0.59788063347675
H          -1.02584978427653    0.68267459255165    0.91203220254802
N          -0.45927262750440   -0.65417845108539   -2.27973728607744
H          -0.36126530573820   -0.96832636823890   -3.23626403767701
H          -1.45387374292203   -0.54490447626204   -2.07383247061596
H          -0.11275930950976   -1.39167297610540   -1.65881618949868
H           0.21377463857882    0.55957712218099   -1.88371023554773
