    26
        -50.45059456  Gyration_radius:  2.46316683811 Dipole_moment: 4.139
 S           0.58072363557703    0.33489598984501    1.88533444854429
O          -0.66198352354623   -0.22701647111667    1.39164102182489
O           0.78889212551203    0.24226825725190    3.28148533175894
O           1.74907521858876   -0.36901306634380    1.14125893911859
O           0.67852300187309    1.78854767930262    1.39314215046399
O          -0.57916697291070    0.43901002523726   -2.13549003249570
H          -0.90224533162327    0.35737602862362   -3.03320301343747
O          -2.94288169320335    1.17369549262538    1.34609399701539
H          -3.13868567843181    1.48411141019581    2.23142654958328
H          -2.23935814065923    0.50290879151346    1.43607719382196
O          -1.13429319152191    2.31025192950399   -0.25288348062099
H          -1.04078272963665    1.67434592012554   -0.99090396479444
H          -1.94245630833062    2.03784865208964    0.23521845904359
H          -0.08153626847541    2.02469844249146    0.71445433100591
O           1.83759650449919    0.89013812150378   -1.09441423933367
H           1.00277120100960    0.71700213472644   -1.58406742011340
H           1.81013720783817    1.81228583846317   -0.82419295084369
H           1.82762967880385    0.07718767225867    0.24262547118106
O          -0.94498131510149   -1.73934844967983   -0.83849929574846
H          -0.09223386451428   -2.23350041954861   -0.84259176995972
H          -0.99509244385977   -1.33559800077282    0.04464310311384
H          -0.77937570628475   -0.44134605186452   -1.67493200146555
N           1.54449340490541   -2.82440790665519   -0.59689413855618
H           2.20411634025159   -2.65006069371871   -1.34467191458329
H           1.63080406708693   -3.79539335413668   -0.32470381930053
H           1.82031077215183   -2.25088799191819    0.19404703477956
