    26
        -50.46862438  Gyration_radius:  2.5641732846 Dipole_moment: 2.421
 S           2.07831575521990   -0.31687544315318   -0.26168776102894
O           1.63157850036517   -1.06858162813891   -1.40548677784879
O           1.34190166278268   -0.67217737713921    0.95631443313824
O           2.08736275636643    1.12214973386366   -0.47017916479376
O           3.58259087561521   -0.74121019870476   -0.00089175060890
H           3.89732898957781   -0.13444332564895    0.66340515634354
H           0.62459821889111    1.23359962309267   -1.21609367437078
O          -0.27400695488569    1.14524773679815   -1.61147362746129
H          -0.12321712239774    0.88015495526913   -2.52124693844791
O          -3.02989133892752    0.04150149650574    1.45141398791082
H          -2.99722365318618    0.03178152959024    2.40899634119434
O          -0.26414133784023   -2.92986818451149   -1.70506449593829
H           0.49086521199633   -2.30580514777424   -1.72320138437882
H           0.11541546739986   -3.80548493721417   -1.62366192435925
O           0.70395617786864    1.79633747084762    1.80128118876412
H           1.26643016544079    2.18170894731301    1.11917029192200
H           0.88104980843140    0.84191697303300    1.72436242726245
O          -1.71849856317892    2.19392292940487    0.66556266671022
H          -0.89426688065736    2.14744018306628    1.19609119049777
H          -1.43274671222948    2.12280361158273   -0.25182788075479
H          -2.69761714520611    0.93399688359219    1.17645755847625
N          -1.07941179895598   -0.95671181617357   -0.06603569727804
H          -0.19206015391244   -0.96358921032655    0.49054386998415
H          -0.96197751299149   -0.17001047680336   -0.74014237891995
H          -1.12376317599071   -1.84076685834973   -0.59986831983480
H          -1.91257123050938   -0.76703745970683    0.54326270365055
