    26
        -50.47039620  Gyration_radius:  2.41525804938 Dipole_moment: 4.729
 S          -0.90848460820129   -0.23468413447051   -1.80156785716085
O          -1.89832589379239   -0.43327454635995   -0.77265710250126
O           0.15450271088573   -1.22687623949286   -1.80089934980465
O          -0.35095309630671    1.12057557740676   -1.79867672846825
O          -1.66594510233358   -0.39129832576315   -3.18217103668351
H          -0.95611430465914   -0.34917845760683   -3.81366550262044
H           1.28210893845062    0.98174209313792   -1.59600125521836
O           2.16198345009472    0.57524965510553   -1.42056877024032
H           2.04571600677763   -0.31997225618749   -1.76408999593765
O          -0.21472003144532    1.24133531830806    2.21615069903965
H          -0.28681806198510    1.88325077613530    2.92349758388703
O          -1.39704324704894   -1.33186626305219    1.71544972585396
H          -1.09628997654935   -0.50089275119649    2.10709254012857
H          -1.74795953169952   -1.09403154219738    0.83716045046710
O           0.78743637859885   -2.28443291484023    0.56515368236550
H          -0.04980381534719   -2.17526936568148    1.07599616061740
H           0.54397071044614   -2.06772963957664   -0.36013166104670
O          -1.70764249491534    2.04624722574657    0.24671165293497
H          -0.77719640357186    1.59596280771617    1.46498906189524
H          -1.14738455126941    1.94512367864072   -0.55006561905908
H          -2.33141293624334    1.31453438725427    0.14876288297915
N           1.93340888129311   -0.04210433982435    1.13492769610583
H           1.19578967913231    0.52614275821473    1.59633925552091
H           2.77881996437026   -0.06477976440134    1.69350839075323
H           1.52886267297451   -1.04520550060367    0.97640295460177
H           2.12349466196166    0.33143178404843    0.15835211151897
