    26
        -50.45759508  Gyration_radius:  2.57454660617 Dipole_moment: 5.974
 S           0.29754912205648    1.11084469302665   -2.33787363926954
O           1.70096895373002    0.92176687228212   -2.53218307132848
O          -0.04119715809067    2.00410384747683   -1.22574739801852
O          -0.43889012722571   -0.14673088197793   -2.19847226377899
O          -0.28392563723148    1.81175329506045   -3.64221348249334
H          -1.21822634447473    1.88182160073603   -3.46721819348005
H           0.81497679819523   -0.93800164221824   -1.60190487973930
O          -0.13264867039902    0.93825776600409    2.53435951417168
H           0.08651052820555    1.68649495492577    3.09017089600623
O           1.45220557380537   -1.42779664423069   -1.01950956807192
H           2.28125151386523   -1.39320153553418   -1.50158041166832
O          -0.29842449071827   -1.71236996138942    2.88469020403451
H          -0.30688013136010   -0.73186308799121    2.92934858123605
H           0.60766982224988   -1.97979422471332    3.05005598827108
O          -1.78454676526371    0.79778544668048    0.30452049060127
H          -1.43456712193325    1.03216927184345    1.18035912627928
H          -1.21023098558128    1.28066622215657   -0.33998371243781
O           1.56129031980450    0.84312348362472    0.56614918981005
H           0.56444929617849    0.91098066203859    1.81639748278639
H           1.69467682007100   -0.00319270993715    0.10525382485372
H           1.13998217083653    1.42192319372631   -0.09907852261511
N          -1.01442080897719   -1.68835985042456    0.29912565342064
H          -0.81453511894263   -1.84791316578367    1.31742690081609
H          -0.14194864054141   -1.77415183677786   -0.23671923287324
H          -1.70752893446713   -2.33373357464506   -0.06313624715975
H          -1.37355998380439   -0.66458220392464    0.18776280064275
