    26
        -50.45798191  Gyration_radius:  2.74755686649 Dipole_moment: 2.198
 S          -2.72165187263800    0.27453696352537    0.61581667318082
O          -2.63757764487693   -0.25904150636166   -0.72383181150700
O          -2.05139792799918    1.57248221882777    0.73173964925836
O          -2.27164989348085   -0.64580613992680    1.64830404686784
O          -4.25607609586108    0.54592162850873    0.91205766984651
H          -4.23489932485915    0.77008480409570    1.83698157036968
H          -0.81267108302524   -1.23649350326503    1.47023735429508
O           2.19373692687294    1.99744375026806    0.52193813208475
H           2.05411811406110    2.34668372923065    1.40341470364220
O           0.06301007287698   -1.66050140625803    1.25374514655571
H           0.01288368241738   -2.54990159403505    1.60841389885247
O          -0.23405556021122   -1.06341962609931   -1.34785996539864
H          -1.20770696056903   -0.92606735577602   -1.32147918512001
H          -0.03616337530823   -1.41317006995527   -0.45289279469676
O           2.47200844856736   -1.47391997861348   -1.82016416481545
H           2.81006193034796   -1.13505138193584   -2.64960334388982
H           1.50490060866277   -1.46236980173062   -1.87939948043262
O           2.59051163562990   -0.57189667052336    0.79860139236962
H           1.74600875577709   -0.94296456931576    1.10057629229449
H           2.73690900823677   -0.94762545154310   -0.08581465247341
H           2.45819981174178    1.04379312972541    0.64423772196202
N          -0.02446609583500    1.56156574842081   -0.87011492911971
H           0.01271416147418    0.55087471829591   -1.16710319905146
H          -0.15791995482713    2.16725454680959   -1.67233382774849
H          -0.86697344136037    1.64175032945861   -0.21061774805559
H           0.85814607418326    1.81583749817593   -0.34484916926698
