    26
        -50.46896690  Gyration_radius:  2.40436018288 Dipole_moment: 6.653
 S          -1.27842183003533    0.99597578211500   -0.75326999170687
O          -2.10612043718468    1.62135296775318    0.24778439042349
O          -0.87137243958077   -0.35032327365876   -0.33356897314853
O          -0.08549608729771    1.78017168008723   -1.08915460651354
O          -2.12468383033462    0.83785293893344   -2.04921052757291
H          -1.45510666955715    0.58871193443912   -2.72315126066865
H           1.08280336604992    1.45485736848757   -0.10156321556193
O           0.19392263570177   -2.66253543162925    0.54867520591203
H          -0.54703006722712   -2.14207589543987    0.19858615438226
O           1.81769104929068    1.23185299781201    0.53964901403834
H           2.10076596820390    2.07472870088164    0.89793320725251
O           0.12231293330645    0.42188043641129   -3.36537306618789
H           0.31991953532251    1.15141848541885   -2.75410844081079
H           0.63641993515416   -0.32899929419041   -3.03036487641451
O          -1.74986787428130    0.38066270916192    2.48682413099849
H          -2.45185261611070   -0.27299986302261    2.47078586528913
H          -1.89572553183456    0.92903444272255    1.66923588699436
O           1.45388194219961   -1.02983382331625   -1.35434311432714
H           0.57768600759048   -0.73446579067169   -1.01343709215162
H           2.08310072796499   -0.39017356060408   -1.01004333824261
H           0.86524351379877   -2.59991033258625   -0.14706400425478
N           0.68253910278317   -0.59774355997358    2.15525472036693
H          -0.29739184602763   -0.21641334075711    2.32944237309352
H           1.18265511250565    0.10749983431561    1.55850925773520
H           1.17400023548711   -0.75965287221026    3.02763500799946
H           0.57012714496761   -1.49087326151142    1.59433727342149
