    26
        -50.46276866  Gyration_radius:  2.54081251414 Dipole_moment: 3.837
 S           0.36962074473704   -0.69388581249024    2.24821269820766
O           1.22740545359100   -1.18633786876011    1.17124376577380
O          -1.01904455155471   -0.59062417501942    1.80712864864435
O           0.86419684518113    0.49806235644036    2.88014678835870
O           0.37340123260593   -1.83089023781294    3.36722415892526
H           0.99480092859365   -1.50852864453046    4.01320412801760
H          -0.32908127446720    2.27837030663973    1.93779675654590
O          -0.78356986455145    1.92791299057819    1.16570105176971
H          -0.99832148409862    1.00287690567705    1.42664057818521
O           1.64132320528454    0.08070800116574   -2.55290838080140
H           2.34246062865551   -0.56940135604342   -2.48454306366083
O          -1.60306922396612    1.88109388878043   -1.41476495264089
H          -1.49272651676261    1.96582068582077   -0.45080517297958
H          -0.95938456579304    2.47843526933456   -1.80303240617906
O          -0.73785443437685   -2.28467900529857   -0.14755144376189
H           0.17354122359101   -2.13203568586369    0.18175254095107
H          -1.24682774856334   -1.85023842075354    0.56315329212391
O           1.52004308230794    1.10471198324346   -0.14804567498053
H           1.58748903653100    0.28551885646694    0.37989392350990
H           1.66315511843574    0.58040273917584   -1.69427579112439
H           0.76583399133072    1.57785857340562    0.24087649051862
N          -0.88649562258807   -0.60966229723135   -2.15181999443659
H          -0.87656511546943   -1.31660826995285   -1.33834890713226
H           0.11505150687435   -0.42583067936525   -2.43365430194052
H          -1.42499098443362   -0.97245335692738   -2.93076864342836
H          -1.28039162109842    0.30940326332308   -1.83245608846572
