    26
        -50.46590960  Gyration_radius:  2.55474718382 Dipole_moment: 2.213
 S          -1.90818707731922    0.11629844825961    1.01775739926746
O          -1.89431461887588   -0.45263954859397   -0.32579588907524
O          -1.20866131800512    1.38797588837019    1.06586386862897
O          -1.46315803184088   -0.82897160310060    2.02068179276398
O          -3.42048458316896    0.44479070147047    1.35961636904532
H          -3.77352176112208   -0.39657980125770    1.63124498505273
H          -0.57467812477913   -1.99006253462808    1.15228276107471
O          -0.11449855226228    3.06107790536077   -0.68023454130001
H          -0.66190776803060    2.60381776977469   -0.00882246346973
O          -0.11243802086936   -2.47605621659710    0.43946359182114
H          -0.69728822448785   -2.38327727595651   -0.31821295388788
O           1.90388790921776   -0.77345253957959    0.08266875546283
H           1.30381312808457   -1.54414408509571    0.21840301528170
H           1.82421946002355   -0.26304614856524    0.91846641434104
O           2.11665844364149   -1.07788153711450   -2.77793296798785
H           2.61178445238506   -1.76379892635007   -3.22668613243866
H           2.37112616238141   -1.11809244496929   -1.84636549766277
O           1.02744606707394    0.52789747080584    2.24671547750107
H           0.56460984821188    3.52815391531346   -0.18963024138807
H           0.24143209572324    0.96943745330369    1.87294126321493
H           0.66091571668375   -0.16122808501407    2.80824448657579
N           0.23768586634467    0.53041444353274   -1.51757063695535
H           0.97782044510417    0.10681481338791   -0.88190733248036
H          -0.68570240108650    0.14824730501639   -1.18564957757164
H           0.21529093043309    1.56698507569180   -1.40699341997950
H           0.45814995664094    0.23731957661693   -2.46854849580799
