    26
        -50.46507303  Gyration_radius:  2.55385935536 Dipole_moment: 4.279
 S           0.48201369892460   -0.51927311274515   -0.70572122436466
O           0.92827021889799   -0.12705930292088   -2.03734595803963
O           1.60294571547398   -1.37371860117251   -0.06089047067194
O           0.31266657950867    0.67421783925682    0.13459659678657
O          -0.74244227125938   -1.30682827207390   -0.73640362210950
O          -0.29299704518257   -1.91596261517577    3.23075161014950
H           0.00579159971492   -2.26032183202701    4.07365562248616
O           0.49248864761724    3.16674360832264   -0.71488819250740
H           1.41583184235097    3.42022099064068   -0.67418816067829
H           0.43606566500102    2.28599849254901   -0.27584226252645
O           1.41497819831188   -0.00401411677610    2.44825745112687
H           2.16819993923893   -0.48760181912806    2.09813064085056
H           0.95937434059036    0.34937034867003    1.65592284301311
H           0.27811160584643   -1.13936873242409    3.02953022890650
O          -2.43019053822683    0.67188040137692   -0.95425817838420
H          -1.92170233205048   -0.17177928201386   -0.88185049858380
H          -2.29735964662137    1.10831027700475   -0.10834722550060
H          -1.54733790960942    1.41673503786752   -2.07433442837474
O           0.14214917135486   -3.19669256481935    0.91690716796206
H          -0.53856496925602   -2.84426349591587    0.32164990084524
H           1.13597177611063   -2.18490915132877    0.34174579704529
H          -0.08378208085810   -2.84871413256600    1.80975763735887
N          -0.70746450216677    1.76418634225701   -2.62330793826268
H           0.00718733317687    0.96303305545503   -2.54522133193527
H          -0.28777398819425    2.55653808948719   -2.08599240078245
H          -0.93243102861962    2.00327255823339   -3.58231359387445
