    26
        -50.45488107  Gyration_radius:  2.47422147379 Dipole_moment: 0.413
 S          -0.14898913555239   -1.34686465582894   -0.30217723105277
O          -0.94094521686335   -2.48975039414056    0.31755774029774
O          -1.03642620061237   -0.48318321168295   -1.05369553174182
O           0.59692349920622   -0.64287337617352    0.71232323779986
O           0.79992206231469   -2.06360026339960   -1.24346602324784
O          -2.68094745373703    0.78890861984886    0.69570926825480
H          -2.30418285479568    0.39986933726575   -0.10960999511208
H          -1.98353284394248    1.42435288298499    0.98911905933397
O           0.39866928247859    1.53705037631015   -1.98720964867239
H           0.02302790144865    1.81549888220575   -2.82488944094236
H          -0.21298722095091    0.86345496480618   -1.62190295223875
O           3.20836512098610   -0.10237160061240    0.50125690210170
H           3.69235293490999   -0.83070779797853    0.89411773445994
H           2.26802241761268   -0.24166927758872    0.72851021427892
O          -2.42459355249394   -1.39960909305312    2.02685793319728
H          -1.53228496781094   -2.09158185723308    1.06808948837887
H          -2.56863290157724   -0.48942248692579    1.60943741732742
H          -3.28494595563809   -1.82576452513517    2.04604023673266
O           2.35895257624536   -0.28852399173214   -2.01027460707292
H           1.49697135116180   -1.35636697115947   -1.63986340847659
H           1.76257400141692    0.49062847707505   -2.08859704130403
H           2.87393359931249   -0.14142263019082   -1.18299130596854
N          -0.36851361439062    2.09685075007906    1.13058812792303
H           0.08832610171677    1.18913565278084    1.17836093959073
H          -0.02325529326696    2.65850644065874    1.89858734237727
H          -0.05780361718314    2.52945576881008    0.26812153377071
