    26
        -50.47071151  Gyration_radius:  2.41588457666 Dipole_moment: 4.189
 S           1.04296941528912    0.37736599567758    1.69807891052758
O          -0.07620349817324    1.28584168081410    1.63335841760100
O           2.01440780196687    0.55295177725269    0.63140983683228
O           0.61102184291539   -1.01798388545027    1.80479234103361
O           1.80602479339077    0.70641191690417    3.04569461086949
H           2.61314047742418    0.21264883862775    2.94926030074874
H          -1.03524213810178   -0.97758893257639    1.80656794935309
O          -0.00364455811144   -1.29829987856454   -2.16977194988776
H           0.04138893942820   -1.93608734256251   -2.88287233496627
O          -1.97174284446024   -0.68615784279328    1.71191261431437
H          -1.95471093888522    0.20511769605462    2.07847404688920
O           1.09152261186565    1.33545359503734   -1.78275336072638
H           0.80961625832375    0.47705032579655   -2.12598791134014
H           1.53388409411309    1.15134225705194   -0.93188710121961
O          -1.09470875870703    2.26347274795521   -0.62565020141502
H          -0.29106061526592    2.15719738999305   -1.18837834725035
H          -0.75774713152073    2.13048297298514    0.28346577096976
O           1.76445505131941   -1.90762383093613   -0.36665051213269
H           1.27191941508870   -1.88302973826457    0.47805347162905
H           0.66730888397720   -1.59698759392579   -1.48758183693069
H           2.26990804253299   -1.08141501958524   -0.31738447139055
N          -2.09151561661347   -0.11149165321500   -0.86560720986454
H          -1.37937621917975   -0.64831509889339   -1.39683793639227
H          -3.00544868032812   -0.19853310148982   -1.29542473542060
H          -2.11149481047567   -0.44142339457395    0.14627227738992
H          -1.76467182781054    0.92960010868365   -0.83055265922301
