    26
        -50.45300983  Gyration_radius:  2.43483198717 Dipole_moment: 5.196
 S           1.77651122759902    1.10778018989328    0.07214353682012
O           1.64494391179551    0.47882391879803   -1.23356124623488
O           1.40413231230208    0.04967984664702    1.13542764432827
O           3.04273841346355    1.66658208172867    0.36309869970320
O           0.67878798509167    2.17738376817370    0.19054971606377
O          -2.00059971934018   -0.19951496770257   -1.16533660837798
H          -2.68544091395713   -0.54473591022732   -1.73927897679888
O           1.62940492087084   -2.13012076569574   -1.82394866766197
H           2.51473379957438   -2.48157770062314   -1.71922851651496
H           1.71412132617430   -1.15738682285412   -1.78877539803914
O          -1.47370259443645    1.26760158456180    1.09208951458944
H          -1.86409433365821    0.75961732017438    0.36167795199300
H          -1.28351857194087    0.60933596873016    1.81662877221216
H          -0.21127793790102    1.81293507503068    0.59280195152285
O          -0.47570171511137    1.54598964959458   -2.38775442993983
H          -0.51439549876971    2.40121401742705   -1.95146192705273
H           0.38229891412056    1.15741111521937   -2.11576338912233
H          -1.47063486025677    0.44252941409711   -1.71128516022814
O          -0.13736411935077   -1.69970811205740    0.12859904348666
H          -0.85472509428895   -1.23264031959450   -0.34506521071749
H           0.44165082321697   -2.06568926200492   -0.57488170074880
H           0.77094598375032   -0.65274452133424    0.73842337182560
N          -0.87365664064945   -0.62577229181530    2.88255266581937
H           0.08820083344572   -0.40773047753406    3.11340454673387
H          -0.86401624557812   -1.47450869454730    2.32862767332454
H          -1.37934220616326   -0.80475413408644    3.74031612301597
