    26
        -50.45954219  Gyration_radius:  2.65279883512 Dipole_moment: 3.133
 S           0.75356797674601    0.51658431789994    2.39739066259948
O           1.79130130859428   -0.28496576351275    1.79700212305994
O          -0.46343736599844   -0.23824350688542    2.67490587231157
O           0.46439731223838    1.72510957853173    1.62679250177193
O           1.29952083611904    1.00422993625292    3.80622222046774
H           0.52288113192355    1.33162559425350    4.25057899899941
H          -0.48325168524779    1.77494300821452    0.33868742464148
O           1.40556468966176   -1.00725646045567   -1.35705228393450
H           2.08685673126649   -1.67124379942629   -1.24211617597645
O          -1.11526507681879    1.66438990866712   -0.42179018113788
H          -1.87256127254240    2.21369175109428   -0.21434369799340
O          -0.86628484052841   -0.08957052351540   -2.73458572160376
H           0.01284069048907   -0.43483132694899   -2.52238187524092
H          -0.95693018339144    0.71894365979536   -2.21566775460664
O          -2.43807512584730   -2.02992559030249   -1.67420790261472
H          -1.97721103448009   -1.33577311841840   -2.19401144753900
H          -2.70262763199981   -2.70734938718979   -2.29615395634958
O           2.47887152880474    1.13429045958291   -0.28811721262332
H           1.82489400863363   -0.15250891577060   -1.06791920747981
H           1.91251857924662    1.89817798819414   -0.14646375101816
H           2.42347038263596    0.64017494912198    0.55950886079911
N          -0.82687102362921   -0.96374039281678    0.19852949810463
H          -0.73728044828400   -0.89944116928422    1.24657103283762
H          -1.51079084695994   -1.64972135750896   -0.15229952816715
H          -1.12714553796672   -0.01828922059583   -0.12252186490448
H           0.10104688732839   -1.13930061897648   -0.24655661439675
