    26
        -50.46507301  Gyration_radius:  2.55369937753 Dipole_moment: 4.277
 S          -0.45542589517905   -0.86539110077242   -0.21152652340180
O           0.90559079113256   -1.37601254572609   -0.29755154943029
O          -1.11884122191431   -1.44014270258721    1.06595046968371
O          -0.45504014798193    0.59775635854848   -0.07578705517011
O          -1.27253502505590   -1.25561117445124   -1.35442697813125
O           1.51961931955010    0.00807962013166    3.44647548122902
H           1.52201395581373    0.08833964747509    4.40140753543066
O          -1.51692599744100    2.28305398783697   -1.80748729450808
H          -1.11817431615243    1.75559926973143   -1.07642811451573
H          -2.44263416367789    2.38481385521530   -1.58130049301600
O          -0.79036614268408    1.00508251087960    2.52217649880985
H          -0.63736694564171    0.98058539698534    1.55456911525402
H          -1.43153908553771    0.30736315891143    2.68303912140562
H           0.72101562579977    0.48891843491493    3.12896525765851
O           0.97676160899290   -2.30049015636570    2.19801946688173
H           1.38288452097575   -2.19558241705407    1.32283072383353
H           1.28206079325707   -1.52619282948257    2.72395526017879
H          -0.36425989915656   -1.86575152493721    1.60227588443252
O           1.87134735557183    0.45553532662282   -1.88612091669210
H           1.65228163804041   -0.30475008245490   -1.29486995450911
H           0.59216270410258    0.40832845316863   -2.86072677104677
H           1.80644801857517    1.22945274982308   -1.32001395799854
N          -0.40995997765565    0.31074796654138   -3.19801628862059
H          -0.83237455757307   -0.44039228508137   -2.55309881598729
H          -0.47558422260966    0.07237527265940   -4.18103877153201
H          -0.91115874356707    1.19428480954697   -2.95127133018885
