    26
        -50.45798180  Gyration_radius:  2.74781551028 Dipole_moment: 2.197
 S           1.42168416858895   -2.40187886504541    0.27143053074834
O           2.27665066440661   -1.38511282372525   -0.34681140291703
O           0.25321977692686   -2.68476454640028   -0.52932417459571
O           1.12355681699428   -2.07010218149570    1.65587031677534
O           2.28529755801670   -3.73154595953996    0.31808939417736
H           2.95240817102846   -3.50387128891045    0.95786373858909
H           0.09981028281668   -0.88382745616671    1.88689067791905
O           1.12757209824751    2.72177957019242   -0.63212172794670
H           1.92159701020536    2.82994076712137   -0.10645024253621
O          -0.62810641871561   -0.20845805741954    1.97420074799550
H          -1.10968654801971   -0.45026834792280    2.76725425357787
O          -2.92723764708875    1.63562303679196   -0.59583109212794
H          -3.22136390361066    1.91980205919759   -1.46164624551778
H          -2.63877183908538    0.71441447835677   -0.67976186721936
O          -1.47955938847536   -0.73342680882657   -0.51817619965202
H          -1.04575777670855   -1.61235776502777   -0.60255003487352
H          -1.32931323263232   -0.50269768418173    0.42343868136027
O          -0.84388046850556    2.41744228798032    1.05809919238478
H           0.36888966319234    2.72268277032323    0.01494457715637
H          -1.66255361430586    2.30965944870279    0.54528055599174
H          -0.69628523175847    1.56185585696952    1.49199901844872
N           0.74855182812999    0.27895015505891   -1.60028401119232
H           1.43923055793973   -0.39198090349382   -1.12727140919089
H           0.82562875026385    0.19639734878404   -2.60798509164077
H          -0.20888524352994   -0.01711222978070   -1.27320442517045
H           0.94730397567883    1.26885714847272   -1.28394377054036
