    26
        -50.46105758  Gyration_radius:  2.61912397855 Dipole_moment: 2.969
 S          -1.89792423227739    1.06094861387653    0.57679834348489
O          -1.01177550821003    0.78041971076721    1.68949442895484
O          -2.35624585380899   -0.14903844307644   -0.09972321831959
O          -1.35571436876814    2.02589017145461   -0.36167066309466
O          -3.19215647829984    1.73074775652407    1.20812617731236
H          -3.65532025026675    2.05939252907125    0.44395457286599
H           0.24669074304429    2.08432786088187   -0.01942439464138
O           1.08639080673249    1.81859917549984    0.42961998206895
H           0.76442027944085    1.58850541623842    1.31234210039183
O           1.08407480029644   -2.60598406314485    0.89918312484863
H           1.59671683685504   -2.72205555065998    1.70013233455757
O          -0.92389153059242   -0.85626983510395   -2.15715250703234
H          -1.51232515765682   -0.49685087702507   -1.44741982292539
H          -1.25134071049973   -1.73817205137288   -2.34475143363575
O           3.32778007626257    1.30642998731883   -1.28314504973997
H           3.74610643879495    2.00884787363547   -1.78187594243841
H           2.72994200695249    1.73400540767282   -0.65345098132943
O          -1.29170382468664   -1.83537924003398    1.70865124143857
H          -1.11098235265744   -0.91807609314517    1.99310801584544
H          -1.90181388169938   -1.68648193587442    0.97229106282939
H           0.15483709048013   -2.40953091089864    1.19947692277516
N           1.35733143418292   -0.57033544943993   -0.80413582823590
H           0.53890774176607   -0.69123518914172   -1.45363893093235
H           2.23168195686212   -0.44398864255284   -1.31614261020744
H           1.20975806409748    0.31766447397553   -0.25935939274485
H           1.38655586369201   -1.39238069543897   -0.15128754205987
