    26
        -50.47114546  Gyration_radius:  2.41065760112 Dipole_moment: 3.626
 S          -1.68719095319024   -0.66604765992127   -0.85491609218052
O          -2.09883071125853    0.40755656055815    0.03444175197954
O          -1.10223285781383   -1.79857755453851   -0.15643991382323
O          -0.84308028434200   -0.18992562531226   -1.93726190241441
O          -3.01348204788338   -1.21707488821966   -1.52228419787943
H          -3.39817280883990   -0.42830562746793   -1.88928830203376
H           0.81891077955141   -1.54383482362335   -2.21825088669131
O           1.05581274627899    0.41213559361368    2.26175770803911
H           1.40506785986654    0.40047138913591    3.15357658215919
O           1.15034485355101   -2.01366813548166   -1.44343042530218
H           0.33618971055786   -2.13577463842424   -0.90448545033605
O          -0.37175341917438    2.36194239335192    0.71008213103973
H           0.13570563097641    1.89699085691122    1.38879681401333
H          -1.10727161046975    1.76377417997250    0.47671886379772
O           0.91464866181871    1.76075534410991   -1.51728443763713
H           0.23794594784212    1.12863440510884   -1.84096678475568
H           0.46530170663031    2.23328600819348   -0.77645461495687
O          -1.24772731004993   -0.79101762419141    2.25967493952071
H          -1.81084025809618   -0.13799649446875    1.81423393779334
H          -1.14710342071411   -1.46521012403622    1.56210325765956
H           0.18427503840296   -0.08324944966342    2.30142054055297
N           2.25443385085331    0.01472766941663   -0.16385830476826
H           1.88759120856260    0.09232492923853    0.80458053427319
H           1.80288481900217    0.81508685282408   -0.75345461962780
H           3.26655395081571    0.06936899995584   -0.17398545816114
H           1.91201892716047   -0.88637255726503   -0.61502568978390
