    26
        -50.46105827  Gyration_radius:  2.61937066939 Dipole_moment: 2.985
 S          -2.09273199454332    0.81013507526326   -0.16139017747726
O          -1.30661038798122    1.67622098996532   -1.03491394985574
O          -1.57395170670892    0.75977275278060    1.19176382872540
O          -2.29658213721582   -0.50085377041907   -0.74921314704842
O          -3.52972735540878    1.47772934729572   -0.05285615073899
H          -3.90749551198958    1.30787004973628   -0.91012711500669
H          -1.43183918069714   -1.52300950118220    0.20045061924838
O           2.45250375336442    1.24435488966812    1.10192662085688
H           2.67746824603708    1.23495769686067    2.03311384003283
O          -0.81235467987861   -1.77251670027000    0.92904221405110
H          -1.02370149156242   -1.10278111150002    1.59451062404808
O           1.32183045087956   -3.55331369347734    0.22358958301191
H           0.49276008426255   -3.20829127761083    0.58457643956054
H           1.15690180743134   -4.46641995722785   -0.01346992445055
O           0.54770810326051    0.45395273547936   -2.39539490184801
H          -0.23739572555625    0.86588679492837   -1.95587011548399
H           1.05622443951484    1.18296115184558   -2.75613335289728
O           0.24002350565004    2.64899412235541    0.94499442335664
H          -0.08465761157506    2.72777540638057    0.03691868929061
H          -0.41028079565260    2.02659030251053    1.32589557568272
H           1.67083512092239    1.85632030656919    1.01947860057656
N           1.43832854522996   -0.83094223194680   -0.23393974591064
H           1.94009579058771   -0.09903484120601    0.32778832081102
H           1.16946068167101   -0.41261183008329   -1.16068036758238
H           1.98843733980107   -1.68343309533795   -0.34857039850238
H           0.55475072024427   -1.12031363138502    0.25850995752266
