    26
        -50.47301031  Gyration_radius:  2.48594086289 Dipole_moment: 3.140
 S           1.03570911921641    1.25318008232474    1.20505587474994
O           0.26272231811918    1.67506606600225    0.05172781708373
O           1.72614989965773   -0.00995386143497    0.98637596691707
O           0.27008090916553    1.24776572999455    2.43686476564585
O           2.16324277179215    2.35278863440649    1.38378524087213
H           2.55156941003958    2.12983584545425    2.22352902298668
H          -1.00924943426898    0.30063214018512    2.37809504531013
O          -1.77322601968798   -0.32582004004596    2.26972358886182
H          -2.23077125129109   -0.32904924370876    3.11201725952446
O           0.67210060205506   -0.65815324210912   -3.16357683285949
H           0.40953551677430   -0.02871941965346   -3.83700757458146
O          -2.19094317270298    0.70475603396016   -0.24741684022980
H          -1.36429304052968    1.22949603588553   -0.19963535188781
H          -2.31803031104145    0.37979015246611    0.66014908595080
O          -0.01455998815087   -1.99718995238420    0.95146005330647
H           0.73544027224632   -1.36404823951825    0.99479682598950
H          -0.68751356970053   -1.62339852856908    1.54486232460093
O           2.16684058828013    0.76145376852059   -1.53874475383695
H           2.41538804579564    0.22697286109621   -0.77046744735009
H           1.33206509591535   -0.17786254563926   -2.59382237016925
H           1.47702638290647    1.34017618131653   -1.16707428374060
N          -1.13607181113533   -1.43343778760620   -1.35667066862475
H          -0.62255257353316   -1.78545661743794   -0.48873607059421
H          -1.65945227432579   -0.56242245922223   -1.03083986565871
H          -0.43707312171925   -1.16701952627807   -2.09808505823467
H          -1.77413437387419   -2.13938204800938   -1.70636575402387
