    26
        -50.46317791  Gyration_radius:  2.43709978253 Dipole_moment: 2.705
 S          -0.75820367181733   -1.72534517711000   -0.37264819711079
O          -0.65028963802473   -0.72054797313335   -1.41329685736926
O          -0.75027010558335   -1.12679831427881    0.95293223460322
O           0.15135158232687   -2.83187767263706   -0.54153031700196
O          -2.23037964918150   -2.35125574717935   -0.52254721546960
H          -2.06838121744280   -3.20855769059283   -0.90377432675047
H           1.48131838149736   -1.84979995275864   -0.72873072923696
O           0.92273897462665    2.19029346913566    1.39758856979376
H           0.58444558211124    2.49514804900276    2.24058455373726
O           2.23542099584681   -1.22526111073804   -0.78112143609367
H           2.86499329371173   -1.61470088761111   -1.39149876821791
O          -2.91114958611576    0.36381414376591    0.71630548254827
H          -2.16375322483887   -0.22023818694285    0.96960599658609
H          -3.48971653560616   -0.19361853039008    0.19228131181190
O           1.69058018129430    1.51111524208659   -1.39577844723447
H           1.81163148878449    0.55422598475214   -1.31283940631925
H           2.00859688449385    1.89165844264259   -0.57320223038889
O           1.66002061374094   -0.28310389579124    1.74572570757589
H           0.77403622173643   -0.67766344351178    1.63361391769231
H           2.15743401062608   -0.59160493140322    0.97398150321007
H           1.27546896475596    1.26984394541076    1.56640519172460
N          -0.92904059361824    1.69939655084512   -0.49225715500337
H          -0.65982508754240    0.78096914820968   -0.95533365926477
H          -0.97442537997724    2.42806890595359   -1.19674006818286
H          -1.84084528372644    1.49936031514479   -0.03121925620792
H          -0.19175719207845    1.93647931712717    0.22349363056604
