    26
        -50.46317795  Gyration_radius:  2.43720610902 Dipole_moment: 2.700
 S           0.22916087800718   -1.90296524915987    0.13546596114767
O          -0.00923873359020   -1.21489281082370   -1.12363395590893
O          -0.25100066905132   -1.13069893896239    1.26567913417179
O           1.57107098080846   -2.40336624535034    0.30584563055331
O          -0.71019207089510   -3.20467142453676    0.06669124946673
H          -0.14569933518371   -3.90150139706090    0.38657142476093
H           2.18770856108394   -0.91482871323875    0.72111846332808
O           2.50516009408567   -0.00636862717373    0.90927781605548
H           3.21705636389097   -0.09699696797121    1.54609942424028
O          -0.27974464642804    2.51722463553862   -1.08927693618020
H          -0.68591912641544    2.71687081100437   -1.93377657166730
O           0.59174785256327    1.96251879609287    1.70029711209570
H           1.19531154916384    1.22132451853687    1.54701496664282
H           0.70478128667005    2.55627198136626    0.95379150129276
O          -2.63844108896840   -1.07920381597942   -0.99613621509140
H          -1.68515245316493   -1.16168628185057   -1.21591423432660
H          -2.86849735066378   -1.91694941457276   -0.58955564431101
O           1.64826935691996    0.83467033345459   -1.57299334529830
H           2.19542981320229    0.72400614338137   -0.78141102901497
H           1.09112879729803    0.03316869419525   -1.59328494226965
H           0.50645197912699    1.93599316659579   -1.29974277533538
N          -1.69817553799282    0.90716972204956    0.53493293827692
H          -1.01490482748416    0.20164534281160    0.94238206925209
H          -2.14905987386612    1.41086559499583    1.29147396262095
H          -1.15669910434259    1.57854885878728   -0.07174655237022
H          -2.35055269477264    0.33385125787099   -0.03916943212732
