    26
        -50.44355152  Gyration_radius:  2.55413150749 Dipole_moment: 7.581
 S          -2.44665050663169   -0.42982512442921    0.74921100786186
O          -3.31042719432729    0.27180625626366    1.62658760791988
O          -1.45760021734846   -1.29045798548806    1.36396701944519
O          -1.67923060622971    0.57385562876163   -0.16936362969829
O          -3.23452752389110   -1.22743558197796   -0.29775633030213
H          -2.52704429239754   -1.77626079475829   -0.76356802196941
H          -1.15295285477721    1.23276289839963    0.37000888564638
O          -0.18835632657589    2.28712547737348    1.06674296887635
H          -0.60213730995498    3.15178720247915    1.05572815049217
O           2.44427678443058   -0.71313929223828    0.15838355384272
H           2.93379981357068   -1.48187337144747    0.45473858459101
O           0.86623677617374   -0.89209858403255   -2.00853999175575
H           1.44486604817340   -0.84845779647533   -1.21332944559739
H           1.34488496344534   -1.39568502203394   -2.66912124136459
O          -1.12342723747029   -2.45335311027943   -1.02764376213310
H          -0.93492316610131   -2.36828898393222   -0.08021497190451
H          -0.50641019938679   -1.83548820640728   -1.47505012601582
O           0.82369809324022   -0.11104582439947    2.14106441368888
H           1.85422258252231   -0.46651566779757    0.92058588297832
H           0.55671239769644    0.81382510011171    2.07778325076949
H           0.01009016116154   -0.62714728578328    1.98533354385113
N           1.45156903435235    1.94397882275908   -0.94353877349957
H           2.20421428057898    1.36530809563822   -0.58583962583399
H           0.87901240541890    1.34576224695468   -1.53146139162588
H           0.49495932139062    2.26175809885288    0.31775843820992
H           1.85514477296148    2.66910282385089   -1.52246602645681
