    26
        -50.46267464  Gyration_radius:  2.51709557534 Dipole_moment: 5.912
 S          -2.17562387667270   -0.57852494573545    0.55549225847392
O          -1.15992724089144   -0.32663254940057    1.57424330911113
O          -2.15665477083367   -1.93217716015260    0.05247383271451
O          -2.11727611221367    0.43624786903269   -0.48277721836521
O          -3.58185815214985   -0.42069593252658    1.27205405865994
H          -3.84416462258544   -1.33421642286228    1.29643942387898
H          -1.05195127272787    0.39385961057179   -1.58619123938808
O          -0.31307044832639    0.42053671892925   -2.26737540428671
H          -0.72826432921109    0.70022707580514   -3.08467627731711
O           3.05185439379529    0.05268934753836    0.30408103455811
H           3.53642590826057   -0.51383262144510   -0.29851282704040
O           0.18803669558524   -2.17763730970916   -1.20966968846748
H          -0.70088238643105   -2.25495424224982   -0.81044263159010
H           0.14815483383591   -1.38899050479468   -1.76532239638774
O          -0.16594907515353    2.05222246335656    1.59143535864976
H          -0.66651054955826    1.19389534552779    1.56482296205457
H           0.34035214608209    2.02051628783516    2.40642894412728
O           1.21974195121191   -1.53505306722953    1.18181978225591
H           2.39028452351060   -0.55534744569436    0.75944978575301
H           0.38897802586700   -1.12691870013225    1.48715198075050
H           0.97170111038181   -1.95748976053161    0.33167289192262
N           1.29346410552922    1.78405525697064   -0.59132819836105
H           1.67086937897459    2.65851012272282   -0.93919285601283
H           2.07135520587433    1.11976751427115   -0.28978303836061
H           0.68437189548949    1.95668904109274    0.26614707814009
H           0.70654266235827    1.31325399881216   -1.31844091547239
