    26
        -50.46507303  Gyration_radius:  2.55378991558 Dipole_moment: 4.277
 S          -0.89623613916853    0.43365434374971   -0.09043712215743
O          -1.15061332744192    0.81992120749589   -1.56977999244543
O          -1.39268547904129   -0.91771750055171    0.12833079275554
O           0.55548574898364    0.49691554797358    0.12780583157034
O          -1.56595605734195    1.41851244983594    0.75083862346753
O           0.86963474534541   -2.11395227409960   -2.99417105190781
H           1.18086611992135   -2.28384628181090   -3.88445908280537
O           1.75038505942428    1.95243558376673    1.97718927693657
H           1.89139645967274    2.82654284954399    1.61043906948076
H           1.42357074693276    1.39755583168639    1.23087825840522
O           1.58026289151661    0.37949156251506   -2.31431763713200
H           1.24773310703174   -1.24430335198229   -2.72858144731010
H           0.93450553658809    0.93863463362729   -2.75493740504473
H           1.32233898588094    0.40307810773700   -1.36923001265971
O          -1.68106089613518   -1.49271256167143   -2.45495220544225
H          -1.78695618282885   -1.72724734833091   -1.51917525871642
H          -1.42274826577461   -0.04291944218221   -2.03847725933416
H          -0.79774061417949   -1.84137263524839   -2.71484167697968
O           0.00815675622513   -1.46924709394632    2.26003226930410
H          -0.29474168163658   -0.04043880812615    2.93485274462525
H          -0.58733114903372   -1.40653188855179    1.47450518103212
H           0.89610365977645   -1.46115900085594    1.89244300964808
N          -0.48627660524317    0.99836507407519    3.04296065751862
H           0.42353285052539    1.49891367148654    2.92285321217231
H          -0.95891431797996    1.22583142193634    3.91032693042421
H          -1.06271196199011    1.25159589174832    2.16990429448343
