    26
        -50.46712254  Gyration_radius:  2.45735495492 Dipole_moment: 4.077
 S          -1.20593489754443    1.37399509895782    0.54325767470030
O          -0.31789783648704    1.36484441746541   -0.62045533739496
O          -0.48678188853666    1.28965638082261    1.79452717223609
O          -2.25198903356306    0.37899350756886    0.42348547888714
O          -1.90072795738525    2.79380072666546    0.50965963625870
H          -2.36042031242449    2.80213512247179    1.34215348721369
H          -1.93073587649422   -1.19346291552073    0.30027928551207
O           2.44410236722507   -1.15539035803548    0.54088382207382
H           1.84389615592915   -1.34820682926954    1.29468621794241
O          -1.62544714827380   -2.13306328323151    0.21923852257724
H          -2.41851493316178   -2.66994554798310    0.19365284557387
O           0.30278385575599   -1.27795727162751    2.13850288159980
H           0.00671161230004   -0.34927611590434    2.14676390596904
H          -0.38920058108408   -1.77368962289953    1.68293862423336
O           0.09818461936918    0.60427304825765   -3.30059380027285
H          -0.14647442533216    1.08425770939355   -2.49626046644126
H           0.27529785495064    1.26863898431778   -3.96747939545183
O           2.05196151792860    1.50850664419569    0.69664142637459
H           2.57469172014736   -0.18338362404496    0.58444891768394
H           1.30111748706405    1.60710014487318    0.08890935077193
H           1.64994331113955    1.58673869823869    1.56862625411924
N           0.50080600256628   -1.14330256923561   -1.15860263385777
H           1.40323975278270   -1.26287310816432   -0.56411673391613
H           0.15185478158732   -0.17938073298116   -0.95487255417789
H           0.65892043712093   -1.19294077927098   -2.16379395604230
H          -0.22938657690181   -1.80006771477799   -0.84248064662652
