    26
        -50.45251208  Gyration_radius:  2.42104626007 Dipole_moment: 4.247
 S           1.32558518836167    1.10877352254021   -0.18655809089292
O           1.03366005081052    2.34862291233839    0.45491567333050
O           0.40140723815575    0.73566978042829   -1.23430693154218
O           1.36823344527776   -0.02921018117856    0.87236938922148
O           2.74437696639862    1.06736426795613   -0.73161303734258
H           2.73637515301756    0.23974985143398   -1.35118241214964
H           0.52660810614656   -0.07784629101642    1.43806991595986
O           1.38569160831458   -2.56872386135755   -0.36432976414985
H           1.74223135208467   -2.12532091808072    0.41074328292097
O          -0.74079494473691   -0.11554997463481    2.31248708714388
H          -0.51056257165923    0.12972882625074    3.21050062047332
O          -2.18177387997598    0.17580111428804   -1.28346538412211
H          -2.44967735151363    0.00792606912931   -2.18846131411260
H          -1.23641231868430    0.43167637854677   -1.31635406706921
O           2.32718027051851   -0.92908544566256   -2.19757722078075
H           1.49331377010016   -0.55103741781057   -2.50068580557045
H           2.06149443639892   -1.66196990801791   -1.57826338434885
O          -1.20710606782125   -1.97681021025987    0.18855923749973
H           0.41256632329084   -2.47483853252498   -0.28149937892872
H          -1.16896889789171   -1.59536705656259    1.07251941847512
H          -1.66325016588834   -1.31363959026786   -0.35608304850723
N          -1.74920787375923    1.92943275290028    1.10625401547995
H          -0.86580127544007    2.33757707153712    0.80500011988958
H          -1.23995685481572    0.68249717076682    1.90437141952904
H          -2.32283431121984    2.65878774737293    1.50911399805700
H          -2.22237737545544    1.56579194189639    0.28547566149795
