    26
        -50.47080846  Gyration_radius:  2.41627843323 Dipole_moment: 4.524
 S          -1.21369523711534   -1.41872968174997   -0.67018309048263
O          -0.31772070353995   -2.14663757529509    0.20147263954059
O          -0.53667831138072   -0.69536185644779   -1.73123108341481
O          -2.13226992543951   -0.56530003481498    0.07664972509080
O          -2.10923470422732   -2.49777439576288   -1.40469114747859
H          -2.44405872159228   -3.00239200374934   -0.67161314733946
H          -2.02306996756237    0.96510916102626   -0.56637605966435
O           1.04414691192178    0.89168926836574    2.15075005447594
H           1.59835299253127    0.16029095500606    1.78578372995509
O          -1.67704565943825    1.69683823545664   -1.12514169426115
H          -1.40472787948031    1.23154967057389   -1.92497132054316
O           2.09851615800063   -1.08519563800122    0.73126407359246
H           1.27654255143648   -1.58911253340475    0.57373540051990
H           2.31534125396491   -0.68360385922747   -0.12000085567665
O           1.85085180823823    0.31063657077879   -1.70852646023911
H           0.96475835229884   -0.13552038004496   -1.73910788622288
H           2.23102009497515    0.20736606541448   -2.58184474665983
O          -1.05191190479246   -0.70453378885704    2.49941251341514
H           0.21695975112416    0.43650012078155    2.43539496293289
H          -1.58172744034847   -0.57188483137024    1.69047089035105
H          -0.59524964388710   -1.53784748741869    2.34487229538213
N           0.70181863977352    2.17221330317179   -0.05439378645141
H           0.97492057885870    3.14709637668869    0.00019061612335
H           1.31008542762653    1.65016932475746   -0.70839262226944
H           0.79790222495733    1.68830861007144    0.92826384468398
H          -0.29382666686350    2.07612641406190   -0.41178684539192
