    26
        -50.45500010  Gyration_radius:  2.52986117177 Dipole_moment: 4.808
 S           1.73830115744781    1.63725437854079    0.71016059521748
O           1.23560262114292    1.56145074558133   -0.66251557907372
O           2.69599885706371    0.61022589524616    1.00823685666849
O           0.62108751936155    1.66484539501750    1.65741744491930
O           2.46825951767343    3.04023371481505    0.83639632864834
H           1.82719749116405    3.68295152079006    0.54187056237835
H           0.52882790177937    0.07793053272202    2.01602927914456
O           0.61677822739655   -0.90953878261930    2.02500855788442
H           1.45919880097139   -1.06176354726972    2.46109891511358
O          -1.31203868351800   -2.20306543804447   -1.33696264697763
H          -1.61345831732554   -3.10755759911873   -1.42237881871474
O          -1.60722568841844    1.29722022691118    0.15493686611474
H          -0.84717374212312    1.55943624503014    0.70318554092473
H          -1.26724300671243    1.20639172222187   -0.75080410137370
O          -1.25772429315968    0.34548912891536   -2.46627734113254
H          -2.06566893840039    0.69587984634292   -2.84385542265566
H          -1.43377213618344   -0.57831085044369   -2.23548827986760
O          -2.00746347852963   -1.19578557129419    0.93336076471205
H          -2.01689552050906   -0.23281093985085    0.69633925925254
H          -1.66569258847463   -1.86468420086652   -0.45518492670181
H          -1.28318292411061   -1.28458654664170    1.56366075461725
N           1.03716364663319   -1.01217056095557   -0.64672297467348
H           1.93198764706036   -1.40006785036117   -0.92818199325806
H           0.92838476023666   -1.08056116060417    0.39949229879434
H           1.05109599596346    0.04170471501145   -0.84990479022938
H           0.23765518357360   -1.49011100910090   -1.10891714976239
