    26
        -50.47427231  Gyration_radius:  2.41163583721 Dipole_moment: 3.226
 S          -1.89352222914896    0.15621558313877    0.47053633095343
O          -1.19677084407464    1.35254340107912    0.93864940891015
O          -1.52795877666862   -1.03436795445107    1.20048177928215
O          -1.77941999051654    0.00982415121656   -0.97118509087255
O          -3.42834586924631    0.40421429791970    0.76640790526352
H          -3.63089351474781    1.13057837747051    0.18705884217768
H          -1.29505396219533   -2.07063957828879   -1.42375712904095
O           0.99169758487877    2.28510175736281   -0.14818220131620
H           0.14700666435860    1.96120207193702    0.25119441766464
O          -0.77321431391050   -2.55557362998943   -0.77425685916680
H          -1.06527156987946   -2.16094645311124    0.07759473885801
O           0.40253499442969    0.71196283929042   -2.32036612274304
H           0.71979954217162    1.44820302961298   -1.77307846770444
H          -0.48221032966982    0.49734851828921   -1.95430971671623
O           2.29205642545505    0.09843692505735    0.93986087904665
H           2.06710836526798    0.96605886227425    0.56255793432398
H           1.69753236587016    0.01593489525573    1.72200862329167
O           0.34974741908790    0.12253804933234    2.76527828173985
H           1.08891496468353    3.19436794050782    0.13797974337672
H          -0.21150782682030    0.73544154075460    2.25766393810869
H          -0.13916302962357   -0.70657515209139    2.72188248709574
N           1.55490356534529   -1.33507349108584   -1.13211031873915
H           2.29639885994431   -1.86154746880540   -1.57963593149590
H           0.71284280539606   -1.94718695439246   -0.93798228244875
H           1.90031681408783   -0.87435996678411   -0.23254079010564
H           1.20247185552757   -0.54370156148649   -1.75175037973484
