    26
        -50.46279177  Gyration_radius:  2.60233261187 Dipole_moment: 2.748
 S          -1.15998927266037   -2.27698001300533   -0.17594548284107
O          -0.09638653356849   -2.44235555929031    0.80338406966350
O          -0.74281006569387   -1.50165686552830   -1.32335819612453
O          -2.39129791443324   -1.78880404872572    0.42479656096355
O          -1.49149251871231   -3.73515503319064   -0.71647043202166
H          -1.87924838256632   -4.13393373510928    0.05543377522159
H          -2.06332473012397   -0.27837865928152    0.37756325279430
O           1.09391837393664    3.25447733989710    0.24799875027862
H           2.04578832646865    3.32543143175775    0.33186663039634
O          -1.88010825403294    0.70439666077275    0.34899320222134
H          -2.73870203641775    1.12730091322396    0.41405181022789
O           1.65984011149793   -0.53009031344462   -1.56670950717615
H           0.86163226339895   -1.10592759383964   -1.60117118480053
H           1.96304483293411   -0.59868156820656   -0.64389624866097
O           1.79610151836068   -0.74804723251156    1.15203294955557
H           1.04738532305878   -1.39980219378754    1.03446022790286
H           2.41197598189318   -1.17434925842730    1.74987801971618
O           0.29970285992674    1.40737653128036    1.92723150841522
H           0.79367924053730    2.67467747062329    1.00115712738183
H          -0.56058019374181    1.14853938168236    1.56028509754482
H           0.88928139496052    0.65214375476467    1.74263758360789
N           0.02173073071154    1.50155043016239   -1.44622149009240
H           0.45315977088891    2.29428608092511   -0.90323252107433
H          -0.75799393679582    1.10482905951505   -0.87691570007954
H          -0.32517816961753    1.80375664501989   -2.34940588154907
H           0.74987125977719    0.71539639470648   -1.56844391147885
