    26
        -50.46262718  Gyration_radius:  2.6230573205 Dipole_moment: 1.987
 S          -2.40169444992681   -0.10144204706986    0.80865225117892
O          -2.80299499323761   -0.66362118354940   -0.45731195511569
O          -1.35711123232133    0.91524044246083    0.63921892911163
O          -2.04206121680148   -1.09208219530777    1.80580336501941
O          -3.65193740012729    0.69617265266440    1.38802933829722
H          -4.34503897448865    0.04353211732476    1.36855979590634
H          -0.54121870716925   -1.59783839374175    1.74197672174042
O           2.63286219464366    0.73892612305655   -0.41960452418218
H           3.52275887802077    0.95935106350903   -0.14322293646673
O           0.40918781324778   -1.89369406582923    1.70505659342141
H           0.44276998331102   -2.71197709272462    2.20284436013015
O           1.28967808544464   -1.65130167191226   -0.85596346897901
H           1.97946446526896   -0.97298869116884   -0.76500319919589
H           0.99387138967197   -1.85376885349953    0.05389458044586
O           1.23095556817180    1.98714910591606   -2.39064243652958
H           0.99630328694551    2.83600476624538   -2.01127213080145
H           1.84987153150957    1.56667292196360   -1.75865924802707
O           1.10299938213340    0.78085081121968    1.68505015807540
H           2.05693943001808    0.82373671459532    0.39680656400015
H           0.19277090080884    0.99872172719194    1.40288048802681
H           1.04917359918778   -0.15418911042779    1.93686276752203
N          -0.52672246523025    0.07162118641778   -1.69846850111543
H           0.13919840630847   -0.72339528447581   -1.45830089159219
H          -0.00326086653027    0.79526359537961   -2.23418088086259
H          -1.36088861041074   -0.28482488488619   -2.15935224372891
H          -0.85587596843294    0.48788025664259   -0.78365348632733
