    26
        -50.45796982  Gyration_radius:  2.58054097562 Dipole_moment: 5.756
 S          -1.90640034068613   -1.41749747518886    0.62039173926124
O          -1.77968412926595   -1.34709161888425   -0.81262074247638
O          -1.55898185105118   -0.14745686150772    1.26151171913262
O          -1.22650595542916   -2.53928862705904    1.24062024764379
O          -3.45773397529321   -1.64282089321278    0.92756487124729
H          -3.44500095054646   -2.02244745011675    1.80116975144394
H           0.16894468649584   -2.03124708443821    0.71183235233284
O           1.75107448597835    2.18157781259235    0.19328456204121
H           2.20086246253798    2.96364934607157    0.51490044457084
O           1.06255485865793   -1.78144356882925    0.35915903640953
H           1.46420229640785   -2.61039632545217    0.08767574830122
O          -0.97320567287451    0.49300343206642   -2.54561330344583
H          -0.01899469107556    0.26753999517578   -2.54148517961855
H          -1.40043784384464   -0.27490202592553   -2.11449841891734
O           1.54383130916090    0.00911766781828   -1.72470272204592
H           1.77741718410304    0.81076539409744   -1.24265748179483
H           1.31253278898777   -0.65140312063806   -1.04959173804126
O           2.29101544679448    0.15001641175262    1.79683534512717
H           3.18795583440946   -0.18931500059366    1.80884747017274
H           1.93641907158462    1.46161565470876    0.84734681238521
H           1.73856741052339   -0.55714473564411    1.40541039429458
N          -0.93683706874934    1.80742370943805   -0.30649541271027
H          -0.99833899926196    1.37861792422123   -1.29912326577883
H          -1.21632162720588    1.01854554298593    0.36740486485161
H           0.04391653623884    2.07210160941428   -0.10750978661786
H          -1.56085125660513    2.59848029715265   -0.19965730776672
