    26
        -50.46986036  Gyration_radius:  2.51137978515 Dipole_moment: 4.770
 S           0.50562411795854   -0.55831699129745   -1.35273564096612
O          -0.00282193151050    0.78687258496038   -1.66846934227662
O          -0.55610645211787   -1.51158107511522   -1.13542864267513
O           1.43097181788659   -0.48320189601666   -0.22392420808243
O           1.31314584223555   -1.04941611726209   -2.59779744111147
H           1.87387970689969   -0.29228922549105   -2.85157064363776
H           1.24276427186140    0.96419030502452    0.50663058766573
O           0.89188708786645    1.83475333352879    0.81907118223429
H           0.68466617259594    2.29988377630926    0.00330079565337
O          -0.72548946494269   -1.34412997683861    3.06123074139018
H          -0.06958491695327   -1.31112703827057    3.75949998430703
O           2.10422583019472    1.45179011288586   -3.07015530275868
H           1.27972953971020    1.43958792826551   -2.54063528800620
H           1.86593700830349    1.77233640306266   -3.94265614460661
O          -2.35842876650499    0.34867495762310   -0.56453133390877
H          -2.17656291472439   -0.59395177850050   -0.70709908020175
H          -1.63842830308971    0.75733120480460   -1.08591321614085
O           0.49327565695255   -2.57364499527151    1.10471326871448
H          -0.11908568391903   -2.67749488959728    0.36271973651669
H           1.08466885128027   -1.86924152505342    0.77737371834701
H          -0.31275149580765   -1.89325247292644    2.33588131474296
N          -1.37580085105073    0.91122363698590    1.82134214574924
H          -0.45915724135348    1.35831219458859    1.52263628279116
H          -1.15836034281337    0.02314154790198    2.35471766021974
H          -1.92728559117108    1.54430354152817    2.39031739431223
H          -1.89091193779068    0.66524645409936    0.92148146177816
