    26
        -50.46161786  Gyration_radius:  2.7343235802 Dipole_moment: 3.829
 S          -2.21728122922052    0.70719123433036   -0.97439953023746
O          -1.28568664356856    0.29469876943479   -2.02179738247667
O          -1.58507770428437    1.53057526714425    0.03202510538361
O          -2.92216283800597   -0.43556989869246   -0.41202968034038
O          -3.31175363711478    1.60834102189038   -1.68227604338941
H          -3.68525680503886    1.00619220650463   -2.31808690346826
H          -2.02830040080324   -1.50924070997031    0.34453459759087
O           0.86925606680710    1.38948586720084    1.14461264713168
H           0.17508358996445    1.85605803958940    0.64893350290171
O          -1.38834361012670   -2.11796848102552    0.80640070952720
H          -1.82742904811503   -2.96745754422448    0.86394201415471
O           3.49135090734060    1.02771287237289    0.35160070838883
H           2.60401761095506    1.30236175047263    0.64088311907777
H           4.03613921160026    1.00423023419315    1.13961760278707
O           3.13186533502766   -1.08513509941816   -1.30054234757340
H           3.40238700567259   -0.83132118223260   -2.18416152942346
H           3.39428760682655   -0.34686034473045   -0.71090302372029
O          -1.14242859676434    0.20824500810036    2.40980260141478
H           0.36464585666355    1.00333582868411    1.89479353768932
H          -1.59806780331689    0.71297232645695    1.71486380458248
H          -1.23500464025392   -0.71761123930339    2.14862106753070
N           0.56466079619266   -0.74799452193882   -0.51332672189728
H           1.46869210739441   -1.06823620825296   -0.91864189970490
H           0.05981760700953   -1.49730757605980   -0.01410332829533
H           0.76078940151835    0.03347803294710    0.15585874869139
H          -0.09620013634248   -0.36017563348041   -1.24622138635407
