    26
        -50.45692189  Gyration_radius:  2.54009292122 Dipole_moment: 6.430
 S          -1.73111534845293    0.80803131114322    1.07050882727912
O          -1.25212543025785   -0.54355081259810    0.93341188276854
O          -1.82690146778740    1.46769465927555   -0.23353270735916
O          -1.00958466901283    1.61590675023146    2.03736364075036
O          -3.22074425304448    0.70958636900342    1.62511882293676
H          -3.37207388726843    1.59009866942248    1.95379861604687
H           0.43958423686458    1.61941853129232    1.43910249094031
O           1.36455911669318    1.66619955835601    1.07123990473359
H           1.82544906534701    2.30623172343969    1.61753787787474
O          -0.87609202773460   -2.59653564186629   -1.10899286696209
H          -1.70609886600886   -2.56857565331297   -0.62577207662474
O           2.67074310898561   -0.73506422556837    0.54700912095613
H           2.78450378775144   -0.54863314338537   -0.38820085473848
H           2.22928406272271    0.04556908985779    0.91925741386856
O           1.71095086505063    1.22139153264531   -1.56569352987046
H           1.57300919617182    1.42927452236296   -0.61668958945727
H           1.75318476297791    2.06456372925752   -2.01927188666387
O           0.63408544632638   -2.50427193942520    1.01512811991157
H          -0.00885301670443   -1.83145222781965    1.29114291531889
H          -0.19489121970315   -2.69707127501941   -0.38578655155244
H           1.47286280847035   -2.02210333508801    0.89580955999588
N          -0.64973463846411   -0.10509800027771   -1.91595435618816
H          -1.02970191436553   -0.03244888446100   -2.85396677901581
H           0.32588059516515    0.25149670544011   -1.88869291356561
H          -1.20584331622296    0.51192414046669   -1.23935920484334
H          -0.70033695751135   -1.12258214337371   -1.57451586653145
