    26
        -50.46116870  Gyration_radius:  2.61826874732 Dipole_moment: 2.821
 S           1.79566335379554    0.31070504246978   -1.52323815509877
O           1.48712841106856    1.71980639080314   -1.31481093439463
O           1.07655185272915   -0.30532909246775   -2.60684080302304
O           1.64340852052805   -0.44237610828100   -0.27386286887093
O           3.33903073183052    0.26830135919641   -1.88845723343002
H           3.67870907786124    1.02976989837264   -1.42854871076724
H           0.62090525697609   -1.68641517698532   -0.49918991695851
O          -0.06201793030651   -2.39560207283202   -0.60977194559359
H           0.32931442363327   -3.03484263097143   -1.20695998626462
O           0.20422730755006    0.13564734944888    1.93165016948538
H           0.93541730516812   -0.08388907096333    1.32452250288168
O          -1.32652956263145    2.52011243342233    2.34883431119298
H          -1.32672575962398    3.04533734524008    3.14947057775841
H          -0.72711437567275    1.77755449467773    2.50674762625081
O          -1.49112514168753   -0.46717015004473   -1.94015294174878
H          -1.32269454399407   -1.29290080552483   -1.45579013511773
H          -0.65733994837885   -0.34052458548481   -2.43823652808618
O          -1.08103585492188   -2.24290009680713    1.91010470297905
H          -2.03378420334078   -2.28626444637676    1.81621581477612
H          -0.70500712091701   -2.46871004153711    1.03917930624987
H          -0.24542703763526   -0.71697625704636    2.10516673882458
N          -0.85366354769817    1.40760416205690   -0.19244900953102
H          -0.57123472204410    0.89620662673394    0.68263181983164
H          -1.43912092537716    2.19453124845035    0.07834423286305
H           0.04785518829805    1.72004133531293   -0.64580353593169
H          -1.31539076519446    0.73828283916154   -0.86875507824943
