    26
        -50.44523613  Gyration_radius:  2.65762772582 Dipole_moment: 4.337
 S           1.05843056669398    2.41117417501752   -0.68831512076776
O          -0.17691937173223    3.15416978291742   -0.70161793913889
O           1.10601492671955    1.28888754132381   -1.59682770680115
O           1.43117687303436    2.00920130526216    0.68073805632543
O           2.19679782328673    3.41937463679538   -1.15571174065032
H           1.92949754589314    4.23761482746989   -0.74824337558052
H           1.60749208383985    0.66807640950979    1.03081021232146
O          -0.91975627571639   -0.38458313441257    1.94408215144848
H          -1.08305495588299    0.24730072558849    2.64540045388923
O          -1.00663118691102   -2.07425344249071   -1.39646205648823
H          -1.24705621871238   -2.74616687616041   -2.03535551773082
O           1.55841301621654   -0.37596293605949    1.26297577607832
H           0.60683966263179   -0.47026563480769    1.60425864755450
H           1.59611889588709   -0.83671847308289    0.29342810347716
O           1.53040584470841   -1.21849110308263   -1.07590446050492
H           1.49771466016254   -0.30075138450858   -1.43993802784362
H           0.64024714990457   -1.58665879503605   -1.26156258808961
O          -1.37833413723063   -2.94006498805078    1.12567827633760
H          -0.63833138672083   -3.43893883139487    1.47681625999125
H          -1.35344496439429   -2.06799220880649    1.55856922100920
H          -1.23406912594746   -2.43046216148706   -0.50941149849248
N          -1.57084655093948    0.72857846338415   -0.26736897798250
H          -1.06304425091281    1.60463707557160   -0.40820939680054
H          -1.30077047951705    0.09638345969509   -1.01425519943691
H          -1.22896094733427    0.07997557947918    1.05608998979009
H          -2.55792920699634    0.92593598738055   -0.37966355192549
