    26
        -50.46970026  Gyration_radius:  2.58893836445 Dipole_moment: 2.422
 S           0.04734672374614   -1.64828439622880   -0.11265995801854
O           0.63883177821374   -0.76361742170429   -1.11413791373182
O          -1.38973390976490   -1.49591419346381   -0.06352363634676
O           0.66054739990075   -1.44389362361272    1.20465423932458
O           0.39340489893427   -3.09975481915413   -0.56758238397401
H           0.17875963030940   -3.63875297488202    0.21857079415049
H           0.41851375079173    0.08614137733752    1.63802435110305
O           0.70542919089228    3.15673172231057   -1.84850192557417
H           0.56722737184649    3.94753790018184   -1.32515799180744
O           0.25631986299560    1.04101219029985    1.85043349153683
H           0.39554084755130    1.12845474072928    2.79508088407380
O          -2.14476435542465    0.95741558012048    0.50486584276814
H          -1.40791839944952    1.18799560849376    1.09692655017707
H          -2.07974238916151   -0.01925768682585    0.41062833533208
O           0.11070920048306   -3.90115881156315    1.93797029070956
H           0.88449205380486   -4.32095190758397    2.32097304624009
H           0.28594009522426   -2.93838998374976    1.93905291929897
O           1.98131533587773    1.45849028564418   -0.29805772125549
H           1.72835577562670    0.59157166205470   -0.66210042075660
H           1.33234643569873    2.58610468959063   -1.32858308925786
H           1.51244322519513    1.50651728151467    0.54970199922368
N          -1.03052379629109    1.13581441367741   -1.85683445265333
H          -0.44380786075509    2.00221045502018   -1.97205986586331
H          -1.60616804575354    1.19703334645615   -0.95686322927077
H          -1.61849739018771    0.96618987443724   -2.66477804236440
H          -0.37636741027090    0.32075467082045   -1.69604210300236
