    26
        -50.46970027  Gyration_radius:  2.58901220794 Dipole_moment: 2.425
 S          -0.29906267515209    0.83469990598999   -1.39518418707336
O          -0.34794695833508   -0.50005417856672   -1.94910664307955
O           0.90725619572217    1.03045140470854   -0.59395276623641
O          -1.50658629042444    1.14639244976679   -0.62190890835726
O          -0.21149793297371    1.86974050583269   -2.55906509499889
H          -1.11315643126077    1.86145952963862   -2.93538817676260
H          -1.55380632482932    0.16597395233303    0.65224334144403
O           2.59548289453905   -0.70037224052814    2.58049736224199
H           2.28246382458638   -1.24723154585911    3.30252058504657
O          -1.52654260371404   -0.45009870858268    1.42875600929110
H          -2.41554154160522   -0.46149673251382    1.78778814023159
O          -0.30875240289459   -2.37989982955430   -0.11171268974496
H          -0.80496117275306   -1.90221748154134    0.57549631028156
H          -0.45860978568945   -1.85054985058802   -0.92683469231933
O          -2.84474855172247    1.75973598102422   -2.79235219287080
H          -2.60081011286346    1.45604804998308   -1.89465026745553
H          -3.29932410038383    2.59831749286868   -2.68383987135721
O           0.70506809739136    1.06902111791611    2.12009048246775
H           0.83516630853226    1.29518526842679    1.18203351727367
H          -0.11659929065018    0.55362673076096    2.12893905513802
H           1.96663715736488    0.06771002125854    2.52165930508909
N           2.05221245934107   -1.25948852306598    0.03273901290833
H           1.71198388502845   -0.31616232138946   -0.30246732544295
H           2.77563141965419   -1.61527937011211   -0.58158806059417
H           2.39588966347493   -1.14594085362277    1.02115109279431
H           1.18015427962991   -1.87957080457867    0.01413665208518
