    26
        -50.45416785  Gyration_radius:  2.41824589091 Dipole_moment: 4.209
 S          -0.09233033925001    0.76474722551053   -1.51028810813914
O           0.57670020487825   -0.51149306583991   -1.37884341485583
O           0.78515982399527    1.88845988636051   -1.46672569005761
O          -1.16666452762686    0.88216495209921   -0.39491710815889
O          -0.95674882978926    0.78074958254467   -2.75771991125508
H          -1.77036206380750    0.17532140699541   -2.54986146666349
H          -0.78137112399496    1.10109909588513    0.51952697650139
O          -0.19491535324732    1.47900826808597    1.88416760226021
H          -0.45116296601881    2.37771176277466    2.09885506729906
O          -1.35772045091988   -2.19659196964862   -0.57658629405878
H          -0.56798089296414   -1.78785287845111   -0.96759043271034
O          -2.88738146091594   -0.64845260384169   -2.00374579444445
H          -3.32379656243967   -0.08679639660054   -1.35790320306862
H          -2.41708144110657   -1.35486982405052   -1.47305762369572
O           2.03587453415959   -1.44602056599784    0.65158341279638
H           1.57436845124047   -1.11211539813213   -0.14390985737132
H           2.32219050411806   -2.33666723020810    0.44048349279177
O          -0.47342608874132   -1.37848158946620    1.87828973110653
H          -1.27275780955484   -2.01349686876356    0.37972936364062
H           0.46208216853163   -1.46601578862098    1.62853119039732
H          -0.58433313859924   -0.45747966300929    2.13494892053173
N           2.22417073469241    1.49511482123409    0.99252604589618
H           1.98482134281742    1.72523915824516    0.02921975281351
H           2.54317328664740    0.53188467873927    1.01136307457339
H           2.98648252990709    2.09023410256679    1.28893616738572
H           0.80300944806277    1.50459891165052    1.64298809653556
