    26
        -50.45416786  Gyration_radius:  2.41829481664 Dipole_moment: 4.211
 S          -1.12937878748316    0.13447552453634   -1.25735540287834
O          -0.19501365834267   -0.97003241062319   -1.23211432037616
O          -0.71680346231206    1.22642398932444   -2.07713290885631
O          -1.36793494094886    0.61972554851203    0.19855437778162
O          -2.51470949029185   -0.35548408948470   -1.63753925249667
H          -2.87165699967578   -0.87083372523132   -0.81372987585989
H          -0.60749368649587    1.18217793449460    0.57005881892138
O          -0.80452021880035   -2.30605537721378    1.01954156267477
H          -0.51750287965672   -2.04320267643920    0.12952446391211
O           0.52226208891824    2.07002052441565    1.10333390178889
H           0.20537302455634    2.97200052545644    1.17742969334243
O           2.34096091804448   -1.00828383187684   -0.40088655476016
H           1.44173746336392   -1.01842360176147   -0.78652109515505
H           2.68184652475849   -1.89979448226711   -0.49420014881928
O          -3.21641499515715   -1.47317813440422    0.50651912205257
H          -2.36198612672963   -1.90787791853348    0.79412588462645
H          -3.34043687579594   -0.72791617794733    1.10007026628244
O           1.05900306377983   -0.58819652283378    2.04564773086852
H           0.87370516686386    0.35627302876167    2.05405872615199
H          -0.24499384541465   -1.77286766652611    1.61782186083028
H           1.67092919007586   -0.72463043542836    1.30256734817282
N           1.90192106832991    1.84962117838152   -1.06350372044219
H           2.41694885087224    0.97842826247025   -0.98791046990850
H           1.15809646793842    2.04427732033866    0.29726211383165
H           2.50705903746919    2.54346604628094   -1.48245811240619
H           1.10900312213914    1.68988715756919   -1.68316399925675
