    26
        -50.46507297  Gyration_radius:  2.55362329598 Dipole_moment: 4.274
 S           0.42961378934744   -0.85014820034832    0.30719763512456
O           1.83109575027655   -1.25170802511857    0.33494717069875
O          -0.29636761547624   -1.43285947986781   -0.81257975199924
O          -0.22880134151010   -1.32953857017478    1.62588249411382
O           0.33189403374325    0.61584782451620    0.28487729284307
O          -3.68721650813516    0.09333363186392    0.76257951974679
H          -4.46513515832339    0.21892865969978    1.30792979902926
O           2.37305313343439    2.26920049292648    0.02608480232002
H           2.72870274452743    2.42829390965609    0.90170124929566
H           1.54180214375799    1.75735488667788    0.16271456189012
O          -1.58362399064213    1.16218218267529    2.03420357698255
H          -2.96046929701681    0.59867368617565    1.19410895354430
H          -1.34796612883792    0.50695274484556    2.69669336528947
H          -0.88553718342519    1.08387004767854    1.35096912263328
O           0.44933611719795    0.27102102371143   -2.64315237517230
H           1.98563889342076    0.24203942261037   -2.16701457928901
H           0.08918331698418   -0.44855901981486   -2.07031668955690
H           0.03393888865432    1.07306751401218   -2.31492542144119
O          -2.37600545500095   -2.24082277834430    0.63990736531462
H          -2.97468835157705   -1.45923186102341    0.64332149391821
H          -1.89918843099338   -2.19827975382761   -0.20432647963335
H          -1.10780271063384   -1.76697432467244    1.35346134688739
N           2.84238456240637    0.17931555305367   -1.54273121906780
H           2.94163056012253    1.09794387232076   -1.05395002972047
H           3.67752710444515   -0.10202203912132   -2.04360911255633
H           2.55700115328119   -0.51788139003950   -0.77397409114816
