    26
        -50.45882471  Gyration_radius:  2.63376199674 Dipole_moment: 6.262
 S          -2.51433682754581   -1.10021458675539    0.21098089977906
O          -2.28007122636059    0.25982813421174    0.66438896044004
O          -3.82882836053542   -1.36936750559932   -0.27806796247026
O          -2.34714315517397   -2.02654754591453    1.52893954868232
O          -1.42124243127262   -1.53430937607268   -0.66482453956878
H          -0.43441406886259   -1.24047735136792    0.55040589111750
H          -3.24153371841555   -2.33200092260283    1.63730069715754
O           3.20447861024917    1.46291476783524    0.15887902248238
H           3.86672639562039    1.52207912160541    0.84814224045805
O           0.26961149176860   -1.10474595848089    1.23360268676340
H          -0.10020453716096   -1.49221015189270    2.02935960940074
O          -1.03583923097379    2.02803246880747   -0.72960224894623
H          -1.65305535358857    2.73361221982412   -0.92621682419029
H          -1.54987123742395    1.35793287690260   -0.19949207479002
O           0.00735684126464    0.02888772202814   -2.23237463058359
H          -0.61474216989730   -0.61909980626440   -1.83266627344601
H          -0.28445597972829    0.88816999473400   -1.87092833794817
O           0.83772511327200    1.64732977566223    1.25184517683038
H           2.33313505844868    1.68019753284768    0.59217879517302
H           0.20786213936074    1.99275991694860    0.59746862632471
H           0.54976109489350    0.73220723329797    1.40717863939246
N           2.03318805298528   -0.71986431261918   -0.79829511120593
H           1.25239125097823   -0.37490474441487   -1.47759435022636
H           1.53442166549306   -1.05776567794373    0.04374938133610
H           2.57646265011700   -1.46084031293471   -1.22607545544598
H           2.63261794203940    0.09839647753761   -0.51828235655837
