    26
        -50.46507298  Gyration_radius:  2.55324460354 Dipole_moment: 4.269
 S           0.62240119603914    0.77091435867757   -0.13102368443501
O          -0.05718657097441    1.31312644167379    1.03707665545380
O           0.19435813432919    1.58935827436248   -1.37577564761234
O           2.07419225949085    0.85063557887591   -0.02070133306937
O           0.21666790444505   -0.62098723833645   -0.37041285929459
O          -3.54552508317349    0.85013153245314   -0.94093938458667
H          -4.28367356033503    0.98955392631188   -1.53594247657603
O           1.84131276841913   -2.70009050803034   -0.31725638968586
H           1.14862081085570   -2.00345751217157   -0.39893232141785
H           2.23280198049168   -2.78235700062576   -1.18815727372470
O          -1.61446958834796   -0.44032627447890   -2.27900870686149
H          -1.19035697083192    0.24462073622626   -2.80320779807815
H          -0.97653693269962   -0.63029924410305   -1.55984730582514
H          -2.90784451973738    0.27207802818722   -1.41944432177575
O           0.15405764080956   -0.78690695413494    2.57269135102804
H          -0.39204981025085   -1.41230047100706    2.08849420148287
H           1.69731581845953   -1.02432132362279    2.18330078597214
H           0.00395923463775    0.07761844596856    2.11938232193861
O          -1.78821797098578    2.78531313097120   -0.34973472193301
H          -0.59225370237989    2.16206280239806   -1.07339913455740
H          -2.53530482676473    2.16658890191384   -0.51853144312653
H          -1.40470257235924    2.50334974222893    0.49602370157444
N           2.59819644547816   -1.05276328522687    1.62210470423224
H           2.54378476077418   -1.87816873815582    0.98277840699025
H           3.42785514816885   -1.04899152982465    2.20443077883215
H           2.53259801641152   -0.19438183056901    0.97603191504907
