    26
        -50.47071380  Gyration_radius:  2.41582022449 Dipole_moment: 4.132
 S          -1.36390802676834   -1.25466649083128   -0.82183580060365
O          -0.09957277541411   -1.94431214470272   -0.73051548899493
O          -1.35405997299704   -0.10615322528386   -1.71256130753611
O          -1.89141613577881   -0.90447123997311    0.49872464553155
O          -2.38962960852077   -2.28402154253433   -1.45049602945394
H          -3.11345832940257   -1.72145739532606   -1.70330890899524
H          -0.79176670431386   -1.46913077775380    1.58748976380043
O           0.42325981692601    2.37694400508276    0.74923112290678
H           0.41713180644795    3.25891629543167    1.12260162081297
O           0.03155081367651   -1.81926773122463    2.00036366291064
H           0.31380875154695   -2.49336751862670    1.37186187572587
O           0.93530729922141    1.31585541441115   -1.87772796778109
H           0.83216784620812    1.87077267867163   -1.09321920343504
H           0.10138311907387    0.81495158891310   -1.96330045330794
O           2.27869277597845   -0.76742505916096   -0.96312565778883
H           1.51164551162624   -1.37344153927746   -1.00942316082502
H           1.98493763992460    0.01792763113587   -1.48332107363337
O          -2.00990969049995    1.68412693855456    0.15934678731906
H          -2.10760447743740    0.79032667665138    0.54573160681465
H          -0.53567549250834    2.14308801513504    0.57449184101665
H          -1.92343880025183    1.47797001564035   -0.78378801284544
N           1.76328215074447    0.09224666550118    1.42191486130282
H           2.09830441683328   -0.26109133335593    0.44493833145301
H           1.07081779866190   -0.63737432198467    1.77045059581224
H           2.54006325369600    0.19402497713766    2.06524890781273
H           1.27808701331837    0.99902942777441    1.28022745198231
