    26
        -50.44038464  Gyration_radius:  2.7415095704 Dipole_moment: 0.963
 S          -1.43721453226106    1.16316152629037    2.16519502001040
O          -0.17592380213950    1.60834632352026    1.63413867357650
O          -1.40852318112083    0.03145383624374    3.01778876371556
O          -2.44647919914745    1.00289151293061    1.02220777416154
O          -2.07027831975946    2.37385571761597    2.94140486371406
H          -1.94500045992274    3.13913150990797    2.38421723544434
H          -2.23244930828417    0.14737571863966    0.46895278244297
O           2.59681170973961   -0.63718138513014   -0.49926588045494
H           3.44955606221316   -0.82557838209694   -0.10676844955028
O          -1.89123890836139   -1.02332214894521   -0.33117635515481
H          -2.70269063714304   -1.39777625802607   -0.68067096243544
O           1.49853471763976   -1.48631595975810   -2.84367165323603
H           1.94755572058783   -1.25868251086766   -2.00588093354223
H           2.01245813053359   -1.08061964317600   -3.54372822018003
O           0.96305412674009    1.62558453192569   -0.88403633441597
H           1.68026822900059    0.98047849985493   -0.78273200933030
H           0.58588089603788    1.73318901917715    0.00193085839040
O          -0.66784258882208    0.03879318003821   -2.27472275119760
H           0.00296940796981   -0.60512360214954   -2.58422804669714
H          -1.39806422951404   -0.61169999255270   -1.14133361361608
H          -0.14170546206804    0.75265250779875   -1.84218866545391
N           0.70197816584187   -1.19255271944146    1.25887747276260
H           0.49287210739730   -0.26669074488033    1.61907847747155
H           0.81443757850493   -1.79880736241390    2.06205206775926
H          -0.13220066119372   -1.50133290559100    0.77028415508344
H           1.90323442749866   -0.91123028889521    0.17427572075259
