    26
        -50.46495546  Gyration_radius:  2.51163973668 Dipole_moment: 4.791
 S           1.95402598939890    0.52460235060689   -0.86736283738519
O           2.34106827047009   -0.84420530579121   -1.11167617242821
O           1.70066473060184    0.83791546530393    0.52457477689022
O           0.84111334537593    0.94153752369451   -1.72652085136114
O           3.18972267740795    1.42256838187379   -1.29610806095851
H           3.50362874537370    0.98123281449411   -2.07850408272174
H          -0.33458319195046   -0.21151397460117   -1.47665282138561
O          -1.73374431320638   -0.10476029858333    2.80302352577044
H          -2.19290538912537   -0.80337084612369    3.27049529284877
O          -0.98048405362490   -0.86237431774870   -1.12412428094417
H          -0.59751378358801   -1.73525957321153   -1.35342951950170
O           0.68737794120192   -2.92757732523129   -1.27017349823977
H           1.38429729707316   -2.23876192752289   -1.30841683227298
H           0.82270397178488   -3.37407351612270   -0.43151548553438
O          -0.20908129933728    2.58619980878567   -0.00889768125894
H           0.09301140351330    2.18696107056542   -0.85473534219230
H           0.48268075732749    2.26966208170772    0.59699342195947
O           0.20771606416501   -1.17049088578470    1.40586702608770
H           0.89043959740567   -0.49195775197096    1.23611543774332
H          -0.90929957431901   -0.51729424657858    2.42617061922679
H          -0.24514470381300   -1.27247449598211    0.55205813019514
N          -2.21058683238644    0.96317786920554    0.41911175542599
H          -3.12638177575454    1.33002634245322    0.18571646199828
H          -2.16837261943884    0.61259840660814    1.41137903596794
H          -1.94497604078680    0.18087627703146   -0.21364703558744
H          -1.44537721377227    1.71675609291730    0.29025904765685
