    26
        -50.46495553  Gyration_radius:  2.51154070314 Dipole_moment: 4.787
 S          -1.95489864780031    0.25253629028353   -0.97828782241643
O          -0.75822788812041    0.26956389892445   -1.79545568176447
O          -2.24792036259800    1.50348092078643   -0.32065220837267
O          -1.95214609751551   -0.87353294551636   -0.03892790089145
O          -3.15755821807169   -0.02098947598607   -1.97619082790130
H          -3.91183560704376    0.27441961031018   -1.47677360246877
H          -0.89947406101944   -0.40930025040187    1.16495583665477
O           3.25881252616271    0.06144506704195   -0.49765530612442
H           3.97892648962038    0.55527962327010   -0.10402952363139
O          -0.15446223390686   -0.07799381650169    1.71299995596452
H          -0.48595331284526    0.76259109655396    2.09345479122239
O          -0.13375622292249   -2.24802119238931   -1.28966085089546
H          -0.93428774424772   -2.01728193895142   -0.76844134252803
H          -0.07640599478063   -1.47850755165627   -1.88180631423883
O          -1.11827323341000    2.39072365724091    1.92379528210010
H          -1.65621518021325    2.14326321094410    1.14211386673249
H          -0.51611270021505    3.06839721306628    1.60881262225732
O           1.06395708947826    1.47427179218444   -0.28919315186192
H           0.43350794163291    1.19020476106601   -0.97990595146184
H           0.70573039539741    1.09576391109466    0.53117396852470
H           2.48861244995541    0.69029108097791   -0.55505786775083
N           1.62568665865637   -1.73833692279657    0.57240820676199
H           1.05043663384729   -1.14419661455383    1.20408634877218
H           2.39507816855668   -1.14208035728737    0.17031558820892
H           1.99053693550234   -2.54842697208366    1.06064041273185
H           0.96624220589807   -2.03356409561876   -0.23271852762562
