    26
        -50.45679328  Gyration_radius:  2.68021315302 Dipole_moment: 3.230
 S          -0.84765405679175    0.11566613013515    2.44068432628885
O          -1.48603235195228   -0.76104502923025    1.44275373725322
O          -0.96815630695982    1.50010299062447    2.09498182261857
O           0.52555445695436   -0.31286167219423    2.69193172938563
O          -1.64111505673575   -0.12145567736214    3.79499016307313
H          -1.48645818319605   -1.03364212176034    4.02796671543015
H           1.23177581285748    0.60260502006013    1.52832271195873
O           1.47915711628902    1.18223827074133    0.76636721485869
H           1.43718083898810    2.07335191314976    1.12138092936268
O           0.14985351441159   -0.71528878693619   -2.75736689850211
H          -0.14583527066728   -1.60723480346888   -2.94604913953350
O           0.62849258509805   -2.29901571217172    0.83046616213545
H          -0.26467310783632   -1.91763543246276    0.91721323519075
H           1.07320378689197   -1.97495577689726    1.62372363122748
O          -1.04555648273184    1.88778781758039   -3.11200435532950
H          -0.56664201125431    1.07320286160935   -3.31333050073614
H          -0.99743043459462    2.43753721859420   -3.89459202287767
O           2.06275254167910   -0.96746855872684   -1.01626414465121
H           2.19796750064009   -0.15371633666144   -0.51619630268233
H           1.61353219499749   -1.57883906024409   -0.39006379231208
H           0.99214883365052   -0.81484030978128   -2.22872547569545
N          -0.80498314025810    0.68111432982641   -0.63052480617723
H           0.08065908640087    1.01986787742415   -0.18401559615959
H          -0.56594068708852    0.08461596024882   -1.45629417219997
H          -1.29386483756557    0.12718757688925    0.12025269444287
H          -1.35793633122900    1.47272128105132   -0.95560786629128
