    26
        -50.45679338  Gyration_radius:  2.68077015117 Dipole_moment: 3.237
 S          -2.10856667898799   -1.35734525510123    0.63173844386674
O          -2.72844083874258   -0.32313954724444   -0.14084837746967
O          -1.20389116774326   -0.81261635374634    1.65975704003130
O          -1.41999636854365   -2.36323850606574   -0.17223313148889
O          -3.24901506971415   -2.12711002386399    1.42353506866197
H          -2.81081489331449   -2.84645710810743    1.87163896013568
H          -0.84130464334460   -1.33759114434076   -1.31395419826081
O           2.36229685770728    1.57918903685471    0.27415916820818
H           2.88029013307741    1.37987229400232    1.05551339433073
O          -0.54700343198472   -0.58311503910461   -1.88140604463492
H          -1.32398752733613   -0.35620730852376   -2.39782439893858
O           0.55306142258458    3.72726428342904   -0.39471021154925
H           0.78632478026322    4.57453984986434   -0.77506088019255
H           1.37784633334349    3.23871532959035   -0.27448708121710
O           1.04870656602718   -2.09143059463622    0.95128698661529
H           0.36761020653666   -1.56772278529963    1.41250378143908
H           0.52132293468422   -2.69697937234966    0.41554712552543
O           2.17470132719830   -0.66086753262077   -1.03032633679277
H           2.43492133052547    0.77315256324345   -0.31228742422874
H           1.90219846911639   -1.24514526822402   -0.28732989269516
H           1.42242474370296   -0.65845980773940   -1.63415557719061
N          -0.32306970948561    1.16694056572532    0.19399401691046
H          -0.80776246577769    2.06087976965561    0.12981863020520
H          -0.42942799281540    0.63419236407616   -0.70227422837183
H           0.69229208097617    1.35427298660466    0.36297958675488
H          -0.73071638794034    0.53840659391676    0.93442557034988
