    26
        -50.45880591  Gyration_radius:  2.60651435591 Dipole_moment: 5.796
 S           1.40541810326596    0.12624122886974    0.93286863602310
O           0.60188094481288    0.14938109857323    2.15602506302873
O           1.06787755624497    1.22079619413392    0.06026337228842
O           1.26427147703248   -1.17974991555814    0.26355472696794
O           2.90616589531336    0.27144012699005    1.33583946433615
H           3.12959185427607   -0.59086062368451    1.73954015182651
H          -0.22835014832932   -1.45278779628671   -0.14766218255846
O          -1.39870632528201    2.76637039379252   -0.26825033175726
H          -0.59676562967458    3.11661187041156    0.13083262983164
O          -1.19789358408790   -1.62982359885113   -0.32288829738496
H          -1.32399990676953   -2.56085365034217   -0.13005416824283
O          -1.34802398516704   -0.72420121321356   -2.92224418581567
H          -1.28341247908415   -1.11359318806105   -2.03255613503016
H          -2.28031852401533   -0.62515140658480   -3.12108115826689
O           3.03858649349766   -2.33806783841173    1.80481246202635
H           3.70661465831030   -2.76761864155882    1.26577378582910
H           2.28307037881422   -2.14737128901437    1.21062459625036
O          -0.17767541141677    1.69598912510200   -2.30798907346226
H          -1.07708711867322    2.42438898311198   -1.14970274223542
H           0.49270892744365    1.47014133625176   -1.64135071665809
H          -0.51028102443679    0.84931398322816   -2.65510078065357
N          -1.72727659952689    0.60821444681305    1.16807332303266
H          -1.64569220187463    1.50136595364659    0.56574091616934
H          -1.80536801607067   -0.22400547831430    0.56010918422362
H          -0.79131215537104    0.48422108746752    1.68715121432079
H          -2.50402319922704    0.66960881149167    1.81767024592313
