    26
        -50.45364417  Gyration_radius:  2.46350034452 Dipole_moment: 7.667
 S           2.22749720945538    0.28588873591256    0.19601992530255
O           1.00985668412293   -0.32747252644222   -0.31674675620801
O           2.52655953468674   -0.09013923356251    1.55703034494895
O           2.26000100563767    1.71424681726730   -0.04908080989035
O           3.39521288401926   -0.34394051164709   -0.70266655126557
H           4.15875544694876   -0.10669960282879   -0.18797825977678
H           0.83766912222193    2.27448092984609   -0.56387611092969
O          -1.51727054900268    1.35111259617715    0.96273614719386
H          -1.97756769958486    2.04881827053880    1.43042251517034
O          -0.93380334553810   -2.58748509479488    0.91458747043611
H          -1.44036809061003   -3.05722517538181    1.57940608487017
O          -0.22517128996710   -0.00738453167043   -2.48665860795807
H           0.16822919472481   -0.56036984462968   -3.16283117569321
H           0.37866028655541   -0.09278730569563   -1.68457114670025
O          -0.08560202136876    2.44369999628262   -0.88194479981410
H          -0.18038547803289    1.90281207733360   -1.67393655067737
H          -0.92555893025027    1.80892035040589    0.28695742511191
O           0.05837211038735   -0.64056196036109    2.32516961178585
H          -0.40302408177494    0.12058452776859    1.94555548658034
H          -0.40161205716726   -1.90420295845348    1.42136098459180
H           1.00645931999981   -0.49354099717854    2.12088658961916
N          -2.01665174218391   -0.75497119955139   -0.62056464911476
H          -2.97221784252540   -0.94154330592085   -0.90332681841188
H          -1.40174089686737   -0.54264989015775   -1.44455951622763
H          -1.95598771593469    0.07288751235664    0.01744647580399
H          -1.59031105794765   -1.57247765560979   -0.07883729874541
