    26
        -50.45879842  Gyration_radius:  2.43218435328 Dipole_moment: 2.703
 S          -2.00084395374984    0.18612892366027   -0.20901402003479
O          -1.40778817068721    0.59391809014409   -1.47946379273189
O          -1.73529550423307    1.15574261969540    0.83509270476922
O          -1.64426952451333   -1.16973094163404    0.14945894279649
O          -3.57023789275023    0.19852809438006   -0.41984923587736
H          -3.74531415249502    1.12600992615861   -0.30548615303882
H          -0.52247675807960   -1.46873654598891    1.24058818789795
O           0.54278684865375    2.28357001951790   -1.30059200338433
H          -0.25992961311351    1.70154363847521   -1.32507203161963
O           0.20513982262780   -1.63558654658978    1.89756784140236
H          -0.05668746095020   -2.41465289700648    2.38974701005693
O           2.12615507645627   -1.06978323707962    0.04529564306831
H           1.59656023021700   -1.42474814900029    0.78258501421491
H           1.56439481445109   -1.23622678589034   -0.77199216246124
O           2.01312222463432    1.35854065510507    0.57894995502794
H           1.47330248905712    1.79152635651774   -0.16623368914553
H           2.14944352213652    0.32950307627372    0.31225560553744
O           0.34060909790922    1.03579888476536    2.40913200751028
H           1.36437477490713    1.31850290943942    1.41490769130493
H          -0.49341764120945    1.20419014115825    1.90746279366600
H           0.36515357204014    0.06763471909518    2.51279811355600
N           0.43031188585491   -1.50735256183818   -1.92362614583302
H           0.90126286246014    2.28123157708750   -2.19006297346118
H           0.67417606262136   -1.59960056811017   -2.90203027319361
H          -0.05623380019934   -2.35137758952588   -1.64592245599280
H          -0.25429881206476   -0.75457381881822   -1.83649656403747
