    26
        -50.47194226  Gyration_radius:  2.49779531914 Dipole_moment: 3.374
 S           2.14662614238670    0.44896730130713   -0.28472802915070
O           1.66620510178373   -0.80454412486071    0.28657180965366
O           2.16514772254148    1.51599586163610    0.69694133529933
O           1.45845887636442    0.79632450521625   -1.51227749146780
O           3.65602087514094    0.19696809457317   -0.69504499535166
H           4.08754169779262    0.14405999205063    0.15106825003382
H           0.72542282544168    1.88419537869283    1.26784942652942
O          -0.20668585056335    2.05251698852750    1.57102817622778
H          -0.17764478151719    2.87347600100842    2.06513819589092
O          -2.38440680028062   -1.71627646768261    1.17421992003475
H          -3.09700894156409   -1.38877933693817    1.72425632566553
O           0.60017918421664   -1.67342172614039   -1.93717081479969
H           0.93851647897450   -0.82054514218218   -2.25872440721054
H           1.00407436161177   -1.71095421410941   -1.04740718579074
O          -1.00890302048099    1.63599323709245   -0.99901817765542
H          -0.09120510218637    1.47313534541523   -1.30394789249498
H          -0.91334475128695    1.88056165385591   -0.06050313005820
O          -0.21991403535901   -0.65417338389915    2.18420841747594
H          -0.34024995639561    0.30780534483898    2.16433538971026
H          -1.54087588327266   -1.41490353757937    1.61221870581552
H           0.52337920743608   -0.82147225434109    1.57272621430593
N          -1.82241743453112   -0.84951586935799   -1.28284261212062
H          -0.90459929449526   -1.30299282763440   -1.58204895538818
H          -2.11541001202263   -1.24049364608264   -0.35125194148251
H          -1.60903194842938    0.19067564279552   -1.17307698304173
H          -2.53987467127453   -1.00260281621703   -1.98251956063764
