    26
        -50.45387490  Gyration_radius:  2.63086155757 Dipole_moment: 5.313
 S          -0.18662996608447    1.33292346240392    2.26546450265547
O          -0.72229073227418    1.58981056524700    0.91578998079278
O           1.23079479974975    1.55820704526694    2.30956994961399
O          -0.59499344868117    0.01991147738279    2.73988824736847
O          -0.88735364627365    2.38887305299877    3.22033464945908
H          -1.78839140868929    2.08442604620270    3.29912656684119
H           0.52201469816742   -0.86010650290124    2.05434346448350
O           1.29809910238628   -1.25499104832962    1.56526383762708
H           2.00578137593217   -1.27772465666272    2.21263656336646
O           0.97294585357068   -0.85965737856797   -2.44600700611926
H           1.57005198784632   -1.42459027532565   -2.93683428814149
O          -1.40917354908485    0.46028086123322   -3.02904641730415
H          -1.92276899426808   -0.06624886616877   -3.64362903371064
H          -0.53419209391897    0.04416706413910   -2.96626622939691
O          -2.09129248946303   -0.29917308514799   -0.44382996502480
H          -2.02285387661975    0.09536871138066   -1.33102529052473
H          -1.72666375646164    0.37283353955170    0.15877659194247
O          -0.25771433486994   -2.18976820063840   -0.62628526123369
H          -1.04670082443884   -1.60086418682356   -0.49910510181804
H           0.48865498438556   -1.45819712885616   -1.78620784760182
H           0.23352924253154   -2.14199997546286    0.20292558600126
N           1.39433394472380    0.70469432134124   -0.27943942010543
H           1.52085279116686   -0.06537614976610    0.42941915155330
H           0.48875351245041    1.17627397419449    0.03796111017578
H           2.14879174010454    1.37839879401554   -0.19111153539228
H           1.31641509811740    0.29252854928628   -1.23271280551154
