    26
        -50.46651510  Gyration_radius:  2.52829481973 Dipole_moment: 2.421
 S           0.18815049173989    1.16783979831093    1.91381520547370
O           0.38379812165414   -0.27728600859779    1.71903589609315
O          -1.21168473442768    1.50082602310893    1.94041877698018
O           0.97346386240777    1.93548686891758    0.96554147551452
O           0.80203451532305    1.50366085750928    3.33317878947429
H           1.69706721734696    1.72904687478837    3.09957391501877
H           0.44792441672932    1.80529271189464   -0.52964072394706
O           0.06816031633066    1.70614018976821   -1.44315149937074
H           0.34277137177728    2.48822565548485   -1.92517588094418
O          -0.45469717142852   -2.47566700075840   -1.79346661271681
H          -0.90672190934548   -2.49648590684361   -2.63798086562166
O           2.59440662628256   -0.89749599395601    0.39314711434459
H           2.75290164732160   -1.80983562758768    0.64218486999131
H           1.81467544425225   -0.60480575963909    0.90997725852095
O          -2.38858212635435    1.13006741431048   -0.40622743232472
H          -1.64923525820523    1.41281782756648   -0.97481755720673
H          -2.14676279655034    1.45170462382081    0.48724553941961
O           1.38359091756254   -0.65597585736985   -2.02062812282985
H           0.31261560876913   -1.84113748611933   -1.91296594341912
H           0.91843125655630    0.19277739106374   -1.92012721008140
H           1.95970781043379   -0.72442446193319   -1.23245679598422
N          -1.59055703049656   -1.27026024147774    0.28033329937483
H          -2.25320168773437   -1.82844825277071    0.80706522861090
H          -0.80408591806753   -0.95532491784812    0.90997955809198
H          -1.18812926318656   -1.81717321079141   -0.53097204904207
H          -2.04604173868807   -0.36956550084217   -0.07388624342360
