    26
        -50.46766185  Gyration_radius:  2.56576843283 Dipole_moment: 3.027
 S          -0.26009872704737   -1.77495021845215    1.14493520412947
O          -1.56259359026486   -1.19514344192733    1.38187679278056
O           0.81512934183399   -0.84034686401931    1.43924557371104
O          -0.14213061790343   -2.35750427240652   -0.19041350620443
O          -0.08783341234909   -3.00263478174864    2.13524685059622
H           0.03440118131578   -3.74839563074347    1.55503862752777
H          -0.90482682621971   -1.16479342619216   -1.04063034868509
O           1.41297829737565    2.86551048933144   -1.08394781543894
H           1.24748861060186    3.62329234700956   -1.64543037178026
O          -1.33386269386066   -0.35316411320463   -1.39751865802380
H          -2.26795323575794   -0.45998537841795   -1.20421060606703
O          -2.19794374653990    1.25664467937191    2.21014664354292
H          -2.09700181553267    0.31396873816027    1.95615191229737
H          -2.18505170982112    1.27427316288793    3.16792455609267
O           2.22163396852587   -1.28822965114279   -0.90819376988739
H           1.42363338093140   -1.83666295899213   -0.81450700605899
H           2.35317169312811   -0.92181929020652   -0.02702322666742
O           1.18741367074952    0.63777741597322   -2.49146481506823
H           1.70659621579184   -0.05551515426137   -2.02993226809594
H           0.27761348708300    0.32142027465634   -2.47846970505623
H           1.45970282401813    2.07876015192395   -1.68440654756731
N          -0.21481749539136    1.35834551325392    0.40399091601463
H          -0.92099107049840    1.69157782714413    1.08475547848258
H          -0.70974227408094    0.85697719369925   -0.36579776170862
H           0.39460229285482    2.10298242849121   -0.00283987118401
H           0.35048226114113    0.61761497976302    0.88547372233353
