    26
        -50.46522055  Gyration_radius:  2.54071477732 Dipole_moment: 3.675
 S          -2.01322612060249   -0.32139483012353   -0.49489181884771
O          -1.98012429682894   -0.26173229874091    0.95337984105202
O          -1.08952015812029   -1.30533322648793   -1.04427987876416
O          -1.85741273300498    0.97752374845662   -1.13265604951608
O          -3.47410753505448   -0.82249175424475   -0.86142672816031
H          -3.52696871920846   -0.73886824204759   -1.80872152765136
H          -1.12698519836555    2.03280691980855    0.08017251239202
O          -0.77553854587246    2.06611970767802    0.99093852730523
H          -1.25790362057173    1.31931180744102    1.39100946026566
O           1.72961322031003   -1.13037962275076    2.22850933358179
H           1.62733370200465   -1.17915205376873    3.17999956877478
O           2.38917843339535    0.59731355954979   -1.58195640960829
H           1.55287907131865    0.52239344952815   -2.12019033662936
H           2.83644183934791   -0.24437449519590   -1.68565495667204
O           0.10959038542552    0.22281538874014   -2.80571570875771
H          -0.23052833026910   -0.52793413605444   -2.27539686380752
H          -0.50904330271025    0.92754824336584   -2.57094212364724
O          -0.39837638553573   -2.33985316198125    1.31931062270579
H          -0.39944247499842   -2.37650577925065    0.35082728739873
H           0.97051730828780   -1.66024150023553    1.85290659174721
H          -1.08049461689673   -1.66194526485285    1.48427546227384
N           1.70946750227359    1.18932780134505    0.91647270542063
H           2.35797179286441    1.86437153515671    1.30814295462927
H           1.98357104668915    0.97381990464542   -0.08342608703565
H           1.73639165067362    0.29220242982617    1.47071976339189
H           0.71671609544439    1.58465187019359    0.93859386815397
