    26
        -50.45695453  Gyration_radius:  2.6070484348 Dipole_moment: 3.503
 S          -1.17246007917244    0.46303329195839    2.09171563546391
O          -2.29419361136422    0.07101173209041    1.23974889595583
O          -0.33380311906380    1.44937782563480    1.45519622048839
O          -0.44028497178902   -0.69698075752665    2.57877756587366
O          -1.80824928347467    1.15046034340862    3.37269996107450
H          -2.31364635293215    0.43878600567855    3.75264008765286
H           0.65441432946547   -1.33805022907524    1.65501568390796
O           0.85565611105995    1.91579946755202   -1.37110117880594
H           0.66568763797187    2.79576409681382   -1.04113644713296
O           1.35780811845738   -1.73294453452576    1.06481820085509
H           1.82513460534281   -2.37001530183046    1.60745787681805
O           0.16557771075814   -2.06994604631516   -1.29967088375088
H           0.68356196933939   -1.97315433384352   -0.47018428682501
H          -0.31098840707009   -2.89821934084488   -1.22686028094018
O           0.24833375916674    0.01386050761946   -3.48931847035610
H           0.69571184313497    0.74969276638387   -3.05636539489405
H           0.60146536750827   -0.78668181774417   -3.09103923948843
O           2.14451993221807    0.90948042902000    0.67298441465148
H           2.12636240085492   -0.05796705911989    0.71284544583259
H           1.47003459349692    1.52103494294864   -0.69400489877188
H           1.34526033600051    1.18835056933022    1.16343931746839
N          -1.25224061905673    0.25720239202634   -1.12762252752253
H          -1.74761547823587    0.24150968122467   -0.18478318446012
H          -1.89160333885463    0.43177938437003   -1.89807485448455
H          -0.49281476208184    0.98947548931080   -1.13848048317296
H          -0.78162869168979   -0.66265950453782   -1.27869718542947
