    26
        -50.46581744  Gyration_radius:  2.48687894629 Dipole_moment: 3.903
 S          -1.59769662036826   -0.15126488639055    1.16651462385873
O          -1.99066017247057   -0.28757470949896   -0.22977080250191
O          -1.05586643716947    1.14338309393555    1.48865243943608
O          -0.71969077313973   -1.25235173145808    1.55981576224370
O          -2.93037542604503   -0.31400031298192    2.00805052132241
H          -3.37758266037843   -1.03024200516086    1.56808741163721
H          -0.00611522327733   -2.35206502892650    0.45472238707395
O           2.22335955195395    0.55901497101942    0.12616516690015
H           3.12154610700629    0.22667757148845    0.09756012041160
O           0.42250848643531   -2.91617489671124   -0.22102879250578
H           0.53377580948883   -3.77541274153156    0.18660405592247
O           0.15419627421471    2.40382178432803   -0.58728350263931
H           1.04896931615222    2.13138403202251   -0.35244132581363
H          -0.41159822081238    2.05855069314738    0.12797576105589
O          -0.18062582027301    1.49969440068966   -3.09320903287596
H          -0.06263605661594    1.99481389327316   -2.24965451105536
H          -1.10678429830665    1.59577550230556   -3.32076138718943
O           1.25779499045364    0.20365417404485    2.52721999706787
H           1.91295597340937    0.43735672390226    1.06808741763616
H           0.69731574648350    0.98341268585992    2.62236586088829
H           0.61387351503774   -0.49930057040147    2.30522777519612
N           0.30563868815105   -0.54609681105203   -1.47042517717081
H           0.23774567930300    0.03070419263686   -2.33900968409216
H           0.48186605322222   -1.54392128968138   -1.60484373945657
H           1.05561945473092   -0.14908960227670   -0.86092489161577
H          -0.62753394718450   -0.45074913258006   -0.97769647373674
