    26
        -50.45911083  Gyration_radius:  2.68913664833 Dipole_moment: 3.922
 S          -1.03839541437224    1.06436329439445   -1.92708530485554
O          -1.83417658769281   -0.12794595357982   -1.64979861897745
O           0.13345314518087    0.82543268673480   -2.72828212295947
O          -0.71646798006624    1.76866477466238   -0.68588202999710
O          -1.99973836105385    2.01733195462884   -2.75491901782413
H          -2.85386101022461    1.75528348798781   -2.42712983704426
H           0.92732977748666    2.02808885297561   -0.50273137941958
O           1.88195478090066    2.07867135188056   -0.26795986972433
H           2.27807900325001    2.66259401033353   -0.91632564732374
O          -0.54658821032366   -0.79462353952960    2.48651615573102
H          -1.46500782773023   -0.77107864491070    2.76165268478092
O           1.94107057420637   -0.44523416969687   -1.26780742880078
H           2.18707178323993    0.34773602085841   -0.75537199191883
H           1.41018509600453   -0.07908966980220   -2.00593505590978
O           0.02144528561692   -3.54400213277776    1.74429836423294
H          -0.04390331463975   -2.73888212379099    2.27368993006604
H           0.52573000861073   -4.17494228182040    2.25872838641667
O          -0.02390658445796    1.70324214559618    1.92104681520019
H          -0.46522345320153    1.78801132375059    1.05541367176066
H          -0.27670565023631    0.15835273872522    2.39169765983447
H           0.89679103595267    1.91735404219079    1.73666556722196
N          -0.19260218854635   -1.50115531488865   -0.14867518631921
H          -0.31966144035423   -1.17927989111031    0.83290503166705
H          -0.93286680876988   -1.06205889437044   -0.76287674920088
H           0.75058113387311   -1.17721831308215   -0.52544691590723
H          -0.24458678265875   -2.51961576538332   -0.13638715073961
