    26
        -50.45987106  Gyration_radius:  2.63465866693 Dipole_moment: 3.587
 S          -0.82176112313669    1.08371604146647   -1.19095784719766
O          -2.03679136975586    1.05019844685697   -0.41886591983677
O          -0.41786796342578   -0.27173823632522   -1.58514015635931
O           0.26386181697728    1.76028499305903   -0.46814305378729
O          -1.04146578033343    1.86581774076161   -2.52785751888678
H          -0.85088205068010    2.80865451955559   -2.33592266206414
H           0.04449184386467    1.10810518730880    0.98621316243862
O           0.13284628270790   -3.40056961581198    1.43861458095949
H           0.08749935096973   -3.81638007388534    2.30035385687412
O          -0.23528630593102    0.65702201027201    1.82477955251281
H          -0.84564012286279    1.27073432732411    2.23918794378950
O          -0.03510457110893    4.12233124630083   -1.56076736483779
H           0.21352922088520    3.39547031121689   -0.95249855082196
H           0.77319542393266    4.39273791190132   -2.00222053907186
O           2.11717617587752   -0.90726224538000   -1.06435283977106
H           1.23108028644604   -0.56265208354492   -1.29880722967540
H           2.26467116340584   -1.66420766613358   -1.63408136114171
O           1.79503944766735   -1.38289826572825    1.56749453116405
H           2.05494733676915   -1.19073590595105    0.64112520761689
H           1.29688576106857   -0.60911999372714    1.85575895042490
H           0.87076143604432   -2.73176768138980    1.49198039013204
N          -1.39328602098256   -1.42518201468272    0.54830325017239
H          -1.07031142235247   -0.63842976878030    1.16605620295646
H          -2.40762132809321   -1.45597342851415    0.52957063463689
H          -1.04782285333418   -1.13274272779496   -0.41010495998777
H          -0.94214463457884   -2.32541303840991    0.86028172972901
