    26
        -50.45987111  Gyration_radius:  2.63457412528 Dipole_moment: 3.587
 S          -1.37029426536767   -0.16913742842155    1.16690668540948
O          -0.31830084718899   -1.19201598822380    1.11431859646130
O          -2.30305457718113   -0.33944322020387    0.08312265327838
O          -0.78500852947321    1.17856453000320    1.17450911414373
O          -2.08529094681734   -0.36755881724471    2.54404749385717
H          -2.43294553418489    0.51045554258864    2.80907513124765
H          -0.49754859186970    1.33930397526230   -0.40018457803755
O           2.09272919903294   -1.72143702321824   -2.51130805766048
H           2.34901244764844   -1.61008075694688   -3.42752379019603
O          -0.41780553191455    1.30861137446397   -1.38897624627926
H          -1.23140659509080    1.70262266901668   -1.71105347751402
O          -2.41994230940129    2.23643084464355    2.92738659945769
H          -1.76589675188999    2.11854329414496    2.20739224888732
H          -1.93117968320788    2.57005228545718    3.68313675893196
O           2.17851689711030   -0.27380715975129    1.27260240427195
H           1.23422916077564   -0.53029945582849    1.31016773860139
H           2.67431194028699   -1.05779413984048    1.51540765712964
O           2.37341480220679    0.57004772348556   -1.27839390172607
H           2.34188200304790   -0.87358392783473   -2.04881945517624
H           1.55529807625053    1.06767772945096   -1.39251918341761
H           2.41297797768982    0.35629320284049   -0.32167508203398
N          -0.33118525988918   -1.39110822753623   -1.49223891031033
H          -0.44885949527840   -0.35302265043550   -1.60785756249551
H           0.56332296722650   -1.69764134266885   -1.95835935640563
H          -0.27794260392127   -1.50936184215770   -0.44032082514525
H          -1.15903392861228   -1.87231119104224   -1.82884266528308
