    26
        -50.45987080  Gyration_radius:  2.63453521409 Dipole_moment: 3.588
 S           0.19749064373829   -0.92235681037634    1.54236305708476
O           1.61159038725442   -1.06046371843485    1.30812102991903
O          -0.57276838036486   -1.49816720530525    0.43284344816612
O          -0.18277169740156    0.47902500449165    1.76691825177820
O          -0.22959151146706   -1.72449101737491    2.81564554012663
H          -0.12953514914350   -1.11555496501931    3.57810709059151
H           0.69012287497367    1.16735475204826    0.60404417598234
O           0.12448458225368   -0.17054356277842   -3.68830157890218
H           0.56793845315849    0.27488221492163   -4.41115977952430
O           1.30615676296771    1.44919875137345   -0.12124770869203
H           2.13446603490970    1.64087351569460    0.32376052489010
O          -2.46717602320485    0.07715602231900   -0.58270972735951
H          -3.02582392835700   -0.54387458943957   -1.05339647737766
H          -1.81357411502091   -0.46503504264124   -0.09514533005636
O          -0.16172691455693    0.41319263030908    4.38558355619238
H          -0.14655167396895    0.72129356722981    3.45556703466672
H          -1.02418729305831    0.65016534168594    4.73393662399682
O          -0.83382082017428    1.63487726774569   -2.05368724349264
H          -0.34048753463538    0.54169193309385   -3.16743187509502
H          -1.52460306389703    1.17930734645801   -1.52661946045027
H          -0.13993140627538    1.85753342138364   -1.42207032333693
N           1.20963483909866   -0.93351980489021   -1.39388283087974
H           1.41495286114789    0.00041388439439   -0.95747366341129
H           0.86338897022201   -0.79273376922297   -2.37959976724521
H           2.02458119172801   -1.53449701021212   -1.32413769366220
H           0.44774190003840   -1.32572816737932   -0.77002688391112
