    26
        -50.46277085  Gyration_radius:  2.53988483979 Dipole_moment: 3.866
 S          -2.33994466372534   -0.06897363813067   -0.42781563834709
O          -1.50036421080976   -0.98624663238746   -1.19319385788522
O          -1.66425123133510    1.21102854682997   -0.21604950505670
O          -2.87449571555020   -0.64207344492744    0.77635368162725
O          -3.58661427685426    0.24503540023423   -1.37217736758580
H          -4.31308131527220    0.34341984724522   -0.76383861437685
H          -1.33934528009153   -2.26990413530438    1.46355390414155
O           1.93523188840760    1.99032667474452    1.22723289060521
H           1.55305840027923    2.86670091594791    1.15765728077021
O          -0.53941164682052   -2.12984998344788    0.94778292346251
H          -0.87924961513078   -1.81231539737525    0.07991832778077
O           2.11979528126196   -1.82106463456494    0.53665742268543
H           2.39584549044146   -1.58304795729409    1.42496173236657
H           1.19625996314533   -2.11892328496559    0.61926280360687
O          -0.03773345646079    0.89854228566057   -2.23147175770039
H          -0.58832669440860    1.35196344653623   -1.55776654742284
H          -0.48169925124919    0.02954355979056   -2.25252998700904
O          -0.11487789769185    0.47405592641113    1.81625031148714
H          -0.77165248749604    0.84197798322274    1.19359650409006
H          -0.18164260781355   -0.48732818932860    1.69328209800688
H           1.20762187036950    1.41506223305095    1.58316680826342
N           2.17800937775644    0.44786374868831   -0.91532406618878
H           3.00643603571316    0.53776033896919   -1.49324031317304
H           1.28889707647366    0.61097904172153   -1.50228161963018
H           2.14903994892550   -0.49932256153424   -0.46375275999958
H           2.18249502740294    1.15478988037199   -0.13023464493858
