    26
        -50.46277082  Gyration_radius:  2.53999286891 Dipole_moment: 3.871
 S          -0.96359628331045    2.17534705661143   -0.05677906586250
O           0.32748540990609    2.04094425256889    0.61169330551272
O          -1.80304493482762    1.00059219254541    0.17805707396645
O          -0.86266491467204    2.54069776818374   -1.44266073728733
O          -1.69207017706655    3.38857535142162    0.67943490118344
H          -2.19453830870407    3.80625318420317   -0.01384861694282
H           1.18581079565339    1.69268097669489   -2.19437840325774
O          -1.01368362027958   -2.84353380614026   -0.31990074574318
H          -1.95004913326784   -2.85521159888749   -0.11503958961451
O           1.49787011460774    1.08520857664042   -1.51679843173056
H           1.17406793605790    1.49007683574620   -0.67961095368333
O           2.50969327014989   -1.22948386165667   -0.54099339918465
H           2.31828296630744   -1.81560962622194   -1.27699343302482
H           2.33248720292756   -0.32952979561112   -0.86854064612043
O          -0.51982656026384    0.28122754695828    2.33176014748076
H          -1.25688453544262    0.38424767280486    1.69217737890622
H           0.04203799588892    1.03198102431292    2.06143874795629
O          -0.70395722169642   -0.60342857669514   -1.63689026014730
H           0.12531024765360   -0.11337843008002   -1.76346201120175
H          -0.89023054839712   -2.07416623507962   -0.93628728819716
H          -1.24940603547653   -0.01312248481961   -1.08153407165368
N           0.72934772866965   -1.81779632213649    1.39405599371455
H           1.48956853226980   -1.52552176185341    0.73178966379578
H           1.10697690904186   -2.41177792592996    2.12408770723800
H           0.25121472010585   -0.95187792036664    1.82195047822458
H           0.00979845416460   -2.33339411320865    0.81727226568093
