    26
        -50.46507288  Gyration_radius:  2.55320824678 Dipole_moment: 4.270
 S           0.90064359032203   -0.01171366772912    0.43788926756166
O           1.72456791949932   -1.12766392915394    0.88725909434932
O           1.83188267749506    1.02231444701809   -0.24493058599202
O          -0.05075889188755   -0.47404821265261   -0.58220803691953
O           0.20271206836884    0.64477170638902    1.53433962622752
O          -1.00911825406078    3.45604697956208   -1.10356944390554
H          -1.02072808773640    4.22163816684918   -1.67982295630684
O          -0.41854213641693   -2.99251850446090   -1.28148181016488
H          -0.34572563730446   -2.02094833605195   -1.13176261287123
H           0.22708866109328   -3.20166215111713   -1.95817857556162
O           0.85560511068985    3.11685870052380    0.79114010188408
H           1.56132430200182    1.92948530026199    0.13196214698860
H           0.14095104314868    3.36707240903073    0.16176890876468
H           0.44356742610853    2.50411174510558    1.42090106736464
O           0.04941708400855    1.39834655133067   -2.45636907979652
H           0.99661787827981    1.55947249958002   -2.43054040173289
H          -0.09223543562161    0.66160173446339   -1.82600384029254
H          -0.73201623754515    2.69283608041061   -1.66076927207755
O          -1.79342446913011   -1.02539512521456    1.72866205201933
H          -1.10610855707860   -0.31824454274675    1.78234375888669
H          -2.22058446554036   -0.88349074576123    0.87949435810067
H          -0.83716063512762   -2.31485346109536    1.62344008566769
N          -0.03030355761594   -2.94647621774316    1.34466068793735
H           0.13195375570409   -3.69721335601325    2.00610882177361
H           0.80759248328837   -2.27718779037997    1.25284434496824
H          -0.21721763490450   -3.28314027037402    0.37282227314005
