    26
        -50.45555342  Gyration_radius:  2.61966325779 Dipole_moment: 4.924
 S          -2.31184943626101    0.56362379184015    1.06480486403744
O          -2.60136379621101    0.61427980172871   -0.37272916957571
O          -2.02244561506829    1.85104570328844    1.62453334236536
O          -1.25066713847456   -0.41368510149389    1.32478853865421
O          -3.61944822079882   -0.00130416940454    1.75596713197530
H          -3.78521695058092   -0.83212115672336    1.31692973805399
H           0.05955206911749    0.56619429035238    1.46358532434312
O           1.11652450666642   -0.11883755372365   -2.17760694953666
H           1.64012744071549   -0.23647195834363   -2.97034334561446
O           0.65620595444546    1.35088151021688    1.37374647854477
H           0.26605315374862    1.99467775418477    1.97358634132246
O          -0.26855018056670   -2.06844627452863   -0.54207882645019
H          -0.70123572120738   -1.52227411634347    0.14269726712174
H           0.00442230256755   -1.45838513492258   -1.23976910841620
O           2.08876567828319   -2.54397641564551    0.62073648574347
H           2.44831618004237   -3.35930159692054    0.27046506399073
H           1.16905239207809   -2.47183399738926    0.26833920509087
O           2.65136556842226   -0.03046956335284   -0.09731380361699
H           1.76475358189068   -0.10435484000596   -1.40534656216416
H           2.17682503784038    0.49996840527445    0.55643090689652
H           2.59893197399835   -0.95306800139220    0.23729944857481
N          -0.40865619170091    1.76084804038813   -1.05936492955537
H           0.06893554837200    1.76706307643340   -0.11927513240106
H          -1.38169654288063    1.32620184595497   -0.88227260683444
H          -0.49468138236741    2.69597153938122   -1.44210924747325
H           0.13597980795198    1.12377412110564   -1.68570045509808
