    26
        -50.46028243  Gyration_radius:  2.46683687313 Dipole_moment: 4.383
 S          -1.46031280242638    1.04229925634351   -1.17303773439229
O          -1.79288824299712    0.16201858726515   -0.03848711176838
O          -1.88604723833514    0.51555818084126   -2.44010752522591
O          -0.03556796862462    1.35626384752812   -1.13632354681452
O          -2.23943440991162    2.39073548029926   -0.92799118301258
H          -1.99457454989998    2.66657089071001   -0.03137276064182
H           0.71063556974908    1.42375755385731    0.26318594968601
O          -0.31010014839609   -1.46779392257501   -1.82578820088092
H          -0.84843030813420   -0.78030170470226   -2.27825300808641
O           1.24015440277580    1.28587829849826    1.09386077063837
H           0.86174505286611    1.90879155547009    1.71898217008583
O           1.79207251334489   -2.78946449412025    0.77057196607481
H           1.07792156242850   -2.27260013513285    1.22399183905921
H           1.36692557994660   -3.55945832684938    0.38910285571023
O          -1.49565887224430    2.10768688553859    1.68521994734291
H          -2.19532907444435    2.12996081277187    2.34076904443796
H          -1.61430726109101    1.26782619082390    1.18607770088197
O          -0.03828364284382   -1.07925651903852    1.58785053291090
H          -0.77939086933551   -0.78619207824298    1.02594375584224
H          -0.84192891172267   -1.68947339882706   -1.05442505871172
H           0.51045782976212   -0.27692233374736    1.66969228071796
N           2.02301956183475   -0.70140193839182   -0.81797185106328
H           1.95591152554587    0.11546664932792   -0.19837326323158
H           1.08472157852296   -0.82104487093933   -1.30947370452740
H           2.76643634676073   -0.57355662303567   -1.49620392946687
H           2.14225276723402   -1.57534785374585   -0.22743989564991
