    26
        -50.46028255  Gyration_radius:  2.46704988152 Dipole_moment: 4.387
 S          -1.71442323715376   -0.14360140297104    1.27933332758288
O          -2.08100352560385    0.95621519505977    2.12810935519442
O          -0.39479935718630   -0.71294853526566    1.60642299641581
O          -1.75365310456264    0.19453278228450   -0.13977788297272
O          -2.76254774092723   -1.29817096160891    1.51091742270705
H          -2.43328039538161   -2.04776563962228    0.99158890130869
H          -0.89629588244959   -0.65816112312245   -1.16828645552143
O           0.08232629158670    2.05018495353248    1.17119979985576
H          -0.80505894891694    1.86039620309083    1.55060138380220
O          -0.23290956630061   -1.04262983110276   -1.80192582815708
H          -0.42390673427978   -1.98356711136461   -1.79887588797385
O          -0.92351487583326   -2.92711042175306    0.31690038735402
H          -0.65712830052608   -3.70951542385009    0.80338806824572
H          -0.55228806749868   -2.15934048420613    0.80811198058233
O           2.93202888534729    1.45716272040732   -0.93364162289570
H           3.27303244216756    1.98508797012428   -0.20971916248734
H           2.68229311056527    0.57988586006607   -0.54563450396452
O           1.78174956837744   -0.71514964425123    0.01653721060017
H           0.63584238069171    1.36204182144918    1.55453466040288
H           1.12075314106555   -0.69615664307120    0.73313065955912
H           1.25822274500842   -0.97937322198401   -0.76297378939050
N           0.36422858468280    1.73754143500070   -1.44950552436202
H           1.42480525045151    1.75820841482952   -1.41555530063648
H          -0.03132482614344    2.47815573828191   -2.01875756551936
H           0.05743445420324    0.81801005915604   -1.79027429204065
H           0.04941768866244    1.83606731133040   -0.43584836760224
