    26
        -50.46628309  Gyration_radius:  2.5895826227 Dipole_moment: 3.903
 S           0.83964731553291    1.39074559982502    0.02048073400381
O           0.18232994182902    0.60785438083561    1.07079003551881
O          -0.09601130277499    1.77375488004120   -1.01218793635404
O           2.00727904093485    0.69574894668683   -0.51715699869337
O           1.35002873147942    2.68734044467765    0.73817967362881
H           1.93976962491929    3.09017154894425    0.07319868879631
H           2.06328463864963   -0.98608315962891    0.09603558440882
O          -1.56827370522151   -0.24928682124133   -1.72599367826217
H          -0.95320621515836    0.51873865600122   -1.62940614939636
O           1.57518044791556   -1.57870029759549    0.69804694099662
H           1.06682210004186   -0.91739101189394    1.20655741538096
O           3.08909117356740    2.96947047029292   -1.24662524491075
H           4.02325665198368    2.96143221464053   -1.02585554665940
H           2.79041406339668    2.03713225383391   -1.21924492634991
O          -2.21606028614450   -2.14504142065224    1.59457587027214
H          -2.46841308574067   -1.22541970764499    1.37384009083541
H          -1.69099465682645   -2.08602068154319    2.39546175828122
O          -2.40866346020545    0.43309094635582    0.83206565504911
H          -2.26139041695921   -0.04886345856154   -1.07917095664835
H          -1.42860325080509    0.55893573110042    0.91727952648257
H          -2.80241552068179    1.26624847704191    1.09325092533205
N          -0.60240341092561   -2.37788241045596   -0.54686152031844
H          -0.93624848339193   -1.53465974426797   -1.12383975466889
H           0.35071813541789   -2.14823765335762   -0.12660330690554
H          -1.27285047755162   -2.47312290144051    0.25338036388016
H          -0.57228762328949   -3.21995526217827   -1.11019724368759
