    26
        -50.46387325  Gyration_radius:  2.44889889629 Dipole_moment: 6.466
 S           0.67421685090745    1.48916768067778   -0.82119126106663
O          -0.33041666800135    1.96908846360369   -1.75547749046742
O           0.76878549822802    0.03719718480156   -0.88899945049324
O           0.39843525665857    1.91691032438177    0.55655530240467
O           2.04972742894672    2.09415770532760   -1.22910773000216
H           2.63464129416461    1.88872886326745   -0.45847305954131
H          -0.85781795113494    1.14592994396303    1.06730892277570
O          -1.68989037215268    0.64892508134464    1.32095770348694
H          -2.09539523786132    1.16086410360825    2.02295287079768
O          -1.38223753203133   -2.39734849305435   -1.15170316950213
H          -2.03847028439386   -3.08728059976530   -1.04024410418218
O           2.12603614016710   -1.27000238562547    0.84857535890094
H           1.61839040461032   -0.78286907048840    0.14209846383529
H           2.63151978388561   -1.94227676647702    0.38879914736910
O           2.97212538848074    1.35999085852326    1.11337102501930
H           2.08542179513098    1.68798836737711    1.33081115650965
H           2.90442440158338    0.39181841543170    1.18245344491778
O          -0.53357411254135   -1.93685964446287    1.30472740580596
H          -0.95096607386115   -2.28515603131079   -0.26316021561309
H           0.42888644197860   -1.79406505383587    1.30447216846265
H          -0.92423210584823   -1.06242983120050    1.44998055688896
N          -2.12370240161872    0.14852684920550   -1.30346870745530
H          -3.00522840582525    0.28288354476191   -1.78802109495000
H          -1.76539640594337   -0.84355035691146   -1.40809322392364
H          -1.38844119695118    0.84922005070218   -1.64362487810822
H          -2.20684193682541    0.33044080639630   -0.28149912069757
