    26
        -50.46282789  Gyration_radius:  2.48656838073 Dipole_moment: 6.991
 S          -1.66131588954005    1.16263254640885    0.54836180247742
O          -2.39096629058783    0.93669813421842   -0.69419624597944
O          -0.55148899734201    2.06792216649527    0.42618645006042
O          -1.27893970527068   -0.11684727793015    1.15209790268701
O          -2.69922519305421    1.82872690360515    1.53914823137918
H          -3.51658780715592    1.39227602062029    1.32167876062705
H          -0.98262408388101   -1.37708591878948    0.22203831448151
O           1.27516041798334    1.45383693425995   -1.44886252945246
H           0.70993443775641    1.89991469102990   -0.78899096728289
O          -0.76493885156261   -2.12196437934048   -0.39948094454475
H          -1.41973701236015   -2.80366211479325   -0.24204103125162
O           1.77082985600231   -2.41501861325812    0.70316163036590
H           1.60888799001968   -2.15593452502277    1.61381767754708
H           0.90718056377645   -2.40691423741251    0.26001759075295
O           1.04756874670406    0.68394361898172    2.25122165373539
H           0.20852324466729    0.30273894411409    1.93626890767512
H           0.93196424265448    1.63059266130605    2.13070278370569
O           2.76009958619980    0.09100698630596    0.20971556377768
H           2.63320953718702   -0.87332875822588    0.18281659034888
H           1.95028313758554    0.95622171984372   -0.90712293153544
H           2.30754902887742    0.36724204023098    1.03150086764605
N          -0.57065474541417   -0.12069959534520   -2.24308210939343
H          -1.38813277358299    0.34496079367515   -1.75749810694864
H          -0.71667529167135   -0.18701574070770   -3.24429059880178
H           0.30503911280862    0.51154300277672   -1.99417178241564
H          -0.47494326087640   -1.05178601302405   -1.80899747955516
