    26
        -50.46282794  Gyration_radius:  2.48649482301 Dipole_moment: 6.986
 S          -1.07379848181118   -1.68824173421606   -0.63967313621275
O          -0.51366353608190   -2.01844711852216    0.64222034649817
O          -0.19760057372949   -1.97673609183143   -1.76951803660490
O          -1.54790458582509   -0.30306492518818   -0.70615514722153
O          -2.34828913132799   -2.60365623576161   -0.84079599604302
H          -2.47090127409704   -2.60038921123031   -1.78466012670471
H          -0.62480219745718    0.82048719978248   -1.35988846218420
O           0.00302196226045    1.49336608934418   -1.73605938029180
H          -0.41088893447137    1.83217409524629   -2.53115035356912
O           1.87690101061384   -0.92646904995128    1.21111688691051
H           1.07396497688474   -1.48157628975002    1.18038031050046
O          -1.67743854377923    0.16113590233264    1.94494406285425
H          -1.57005298371058   -0.74644735483819    2.24298716211228
H          -1.70966688365082    0.08718495585338    0.97431436288732
O          -0.10202007509376    3.01648720676699    0.58889130177951
H          -0.00743686116014    2.57070041725944   -0.26816933216788
H          -0.99608512310845    2.83459118194183    0.88954955473783
O           0.82685738776148    1.16030135185936    2.37585597704892
H          -0.09193027633197    0.82761484576156    2.41421634953167
H           1.60211207706215   -0.11458015015637    1.72316908871319
H           0.76610602604566    1.95769859102379    1.82161143484552
N           1.86842716724268   -0.44784052533560   -1.29663680897078
H           1.98642730726698   -0.59036049303618   -0.20393325292954
H           1.46196243671308    0.47960225338882   -1.49478021984090
H           2.74152553111010   -0.58843494639578   -1.79267872773785
H           1.13517357800289   -1.15509996366360   -1.58515786323185
