    26
        -50.46282805  Gyration_radius:  2.48656986577 Dipole_moment: 6.979
 S          -0.33665781085016   -1.34922746325165   -1.57518775608503
O           1.07833024959902   -1.35621254728758   -1.32232943369815
O          -0.77122026835725   -0.33135377422640   -2.52514221819576
O          -1.12732962361794   -1.26495578732619   -0.34403710039541
O          -0.69768233451259   -2.73845411841794   -2.24015926773639
H          -1.52438980305415   -2.56129541178649   -2.67725039037284
H          -1.69522427460807    0.14379846043147    0.14038187295894
O          -1.99029988696524    1.04941282672458    0.42536327934675
H          -2.94815887863021    1.04079961807825    0.39852603796652
O           2.15162489023305    0.97419053062148   -0.51835716848415
H           1.99350928610545    0.07712334835990   -0.87079007283624
O           0.80352582593424   -2.01693263639047    1.37852433360759
H           1.44221852774221   -2.33298931424956    0.73342479878591
H           0.02629871649531   -1.77817397960427    0.84229664419595
O          -0.71824535866368    0.78393104812300    2.88462954714432
H          -1.20717380551291    0.97119431185814    2.06718675862518
H          -0.78342762968007   -0.16401412473760    3.02594934508014
O           1.85401691176153    0.42202217106275    2.01604247544736
H           1.06975765670403    0.81510285018190    2.43679197761838
H           1.61709012433252   -0.52037414693767    1.90688759138040
H           2.14188626274919    0.86023864678442    0.47331671667993
N          -0.08576944332024    1.89261684082918   -1.33627347408448
H          -0.36506729384352    1.08242417339238   -1.95806193552008
H          -0.77793888964986    1.91592752795480   -0.57144276508849
H           0.91284926653663    1.61722099006255   -0.94278467313302
H          -0.06252242625151    2.76797994967965   -1.84750512358818
