    26
        -50.45420292  Gyration_radius:  2.65186173472 Dipole_moment: 5.890
 S          -2.84496155452833    0.31023649219432    0.35348674386187
O          -4.04435721358340    1.04034210605395    0.60131438699155
O          -2.73911178176424   -0.26971102534145   -0.98598501283982
O          -2.88524116177719   -0.95705581257990    1.35903400712334
O          -1.59441215628663    0.98547628727328    0.69436826453344
H          -0.65280647120317   -0.20781801354973    1.21544589425199
H          -3.82583814578807   -1.06581753145112    1.44742552668290
O           0.72839675699156    1.90989560579932   -0.25225811814680
H          -0.17626182166374    1.94479742902442    0.10408809901795
O          -0.08210337723855   -0.96020273884485    1.52006189561615
H          -0.68969210990406   -1.53695622376787    1.98762985899212
O           1.16005145531714   -1.93693327120857   -0.67801529559686
H           1.99074555630565   -1.44275847879299   -0.71945864870919
H           0.76247120231202   -1.73513636614311    0.19472246646808
O           2.96891537721741    0.18610011156923   -0.98261696469642
H           3.76024532828018    0.51780899629799   -1.40787536901624
H           2.35063839045037    0.92774962620032   -0.91558030249561
O           2.08801152101574    0.71313233224182    1.74943737707001
H           2.75123638565921    0.22093552519621    1.25618982993503
H           1.25274870525186    1.64815171331289    0.53868707215089
H           1.35931313382516    0.09375384573764    1.92192030693449
N          -0.31931952458934   -0.07362514872363   -1.82546608404123
H           0.09996561800252    0.74307123821176   -1.32517346809993
H           0.21393794478927   -0.93698472044969   -1.51929076171807
H          -1.34666574702428   -0.16844639809469   -1.50083447210802
H          -0.28590631006471    0.04999442983696   -2.83125721215992
