    26
        -50.45954160  Gyration_radius:  2.65406210717 Dipole_moment: 3.183
 S          -1.73260885731969    1.78639051228929   -0.63744560663162
O          -1.55162472033801    1.13463928492115   -1.93029085949389
O          -0.55906802716859    2.49673907223833   -0.19237035948249
O          -2.22905759357032    0.84633891700669    0.36608363682248
O          -2.87811049146243    2.86498868881850   -0.84967244045610
H          -3.52289423493298    2.40802996330742   -1.38179428780767
H          -1.65467929708861   -0.62782089031209    0.60420525621547
O           1.87275917947685    0.63860940922890    0.95696313360325
H           2.44005105259030    1.40639435485750    0.87424625942281
O          -1.22210730706329   -1.52364741251679    0.62035706913979
H          -1.91482230096170   -2.15235973924751    0.41283422723407
O           2.11991356208103   -2.39468743246666   -1.62211530581026
H           2.96449210345522   -2.79715770359285   -1.82259856594305
H           1.99822612104013   -2.46666407738861   -0.65032273255570
O           1.59094718226681   -2.15719478714396    1.02840277915397
H           1.89068422887532   -1.25119561747369    1.19086816735205
H           0.63594638316738   -2.14046176837425    1.16597815444642
O          -0.21688777909205    1.57787488466915    2.23129880669839
H          -0.37485291615770    2.11165459340261    1.42144339850398
H          -0.99469246871361    1.01588387126709    2.29111152607817
H           1.12072403059023    0.93278954957687    1.53896941335708
N           0.45622844775993   -0.33272973050549   -1.15252839397555
H           1.06580761188779   -0.91097497749527   -1.74831879618388
H          -0.22223748759285    0.29333008188823   -1.66118210098527
H          -0.12445496226896   -0.97345518894191   -0.57026668010444
H           1.04231850047413    0.21468616205189   -0.48385569857369
