    26
        -50.45896713  Gyration_radius:  2.62382923456 Dipole_moment: 3.350
 S          -2.05913774417459    0.22205671615683    0.78518392757692
O          -2.09715430176897   -0.22897947661607   -0.60462171998161
O          -1.08776326424400    1.27230818789596    0.99118326147624
O          -1.90976830987917   -0.89621162862906    1.70245641044705
O          -3.48295425875133    0.85155175015707    1.08295947715822
H          -4.04452565424525    0.09218697940897    0.97032942968417
H          -0.51931833636945   -1.64806903511364    1.69935825841455
O           1.30219108041246    1.99154924651892   -0.08284762140543
H           0.39025445249186    2.17142337794773    0.19960114715349
O           0.37233714878821   -2.09427135721491    1.71022976180730
H           0.34327390318468   -2.71724963097526    2.43821992083456
O           0.95432846349431   -2.61458606794633   -0.85717903015435
H           0.84866736177897   -2.48169668299714    0.10926918590913
H           0.23770487314144   -3.19315478380183   -1.12439560011012
O           1.38518520686983    2.05351270127864   -2.94479509863484
H           1.62577500169515    2.82420072411379   -3.45960685045130
H           1.52673481749768    2.28442809992681   -2.01576877444304
O           1.28915608808277    0.51755499212226    2.15460935265492
H           1.69089895510617    1.57576431845045    0.71290545346829
H           0.37134134519571    0.81417630388329    2.03753439940223
H           1.24683859645934   -0.44531865716001    2.07020538597801
N           0.33018963404245   -0.08025742997782   -1.53095973155608
H           0.44878834879314    0.25554943788202   -2.48734128949491
H           0.71832426103749   -1.04063860030050   -1.39585473076565
H           0.81262187939100    0.61730330078660   -0.91353773705180
H          -0.69398955803584   -0.10313279580202   -1.24713720790089
