    26
        -50.45919003  Gyration_radius:  2.47671543004 Dipole_moment: 8.333
 S          -0.16215385472162    1.86774286789119    1.22722224344092
O          -0.16914878990775    0.89810856945799    2.28014119980888
O          -1.48552038056272    2.08303875249565    0.62833120595665
O           0.81172806002807    1.58564714164844    0.17051239041470
O           0.25052907365378    3.25968615635864    1.85080991463084
H           0.09733701180102    3.85916993976079    1.12822753755192
H           0.41055280364563    1.14262620829644   -1.31347231471057
O           0.09707851444550    0.81785394088965   -2.20042992841502
H           0.50204504253552    1.38734826779748   -2.85549141929953
O          -0.90206782232727   -2.22203864112580    0.19750153198400
H          -1.38707218115215   -2.97723512490075    0.53152002992383
O           2.55268386305859   -0.56810265169295    0.34669118965887
H           2.28424301935150   -1.04886528912930   -0.45867868351660
H           2.08379555273917    0.28106987610549    0.31737027261745
O           1.15036905408550   -1.73711936410786   -1.72246837311893
H           0.80440347261826   -0.89256234376082   -2.04639889599672
H           0.46853590524449   -2.10404314107863   -1.14369122172214
O           0.75325020143364   -1.58723522735277    2.00631506636271
H           0.41190698789827   -0.72617527876089    2.31337010690010
H          -0.22720422765716   -1.98420079288576    0.94028298880650
H           1.57329815992069   -1.34932562635566    1.50835900639160
N          -2.00905551718491   -0.01234372721865   -0.74609181786801
H          -2.98305830438433   -0.11608964135501   -1.01032634762173
H          -1.41645594009175    0.20195898689907   -1.56646515039417
H          -1.87377988112924    0.83792647218703   -0.08888762241348
H          -1.63623981333886   -0.89684033006375   -0.29425290937151
