    26
        -50.45091420  Gyration_radius:  2.53858774263 Dipole_moment: 7.495
 S          -1.41726365593590   -1.71861320504416   -1.05688582707082
O          -1.38465310300102   -2.28516761830881    0.25901022112121
O          -0.13678931872884   -1.12730808549887   -1.46981949770743
O          -2.49473600431611   -0.75851708538705   -1.27225473764668
O          -1.68002226807119   -2.90869393229971   -2.07300149334232
H          -1.77448711963597   -2.46776993635408   -2.91186664478669
H          -2.35758646628144    0.24774597608893   -0.07410510498680
O           1.73771259639941    2.03528761408343    1.03390307746768
H           1.87460841814335    2.85058886854701    1.51606560093020
O          -2.14823460296111    0.97121214774403    0.58051838667670
H          -2.98791181526518    1.23700949226416    0.95873760981996
O           2.83856406853073   -0.00984419351592   -0.52127665919407
H           2.69767843308157    0.69310929213388    0.12792432110244
H           3.47929523820920   -0.60973765331571   -0.13645801425135
O           1.07280972582547   -1.66700712648675    1.07021068535392
H           1.42811279919750   -1.33159386297123    0.23409079404072
H           0.20996528114488   -2.05949371374232    0.83847316909950
O           0.10102208348702    0.48276250353751    2.26332308694938
H           1.14669215286148    1.45496729967720    1.61273899358430
H          -0.76278155436747    0.54602011633704    1.83089917562033
H           0.47520464211455   -0.38779214978094    1.97468192337015
N           0.02447088347550    1.38831375698399   -0.96751123777130
H           0.82085231923030    1.65944929667478   -0.35132838410259
H          -0.85797600842748    1.51192621996749   -0.43723543102945
H           0.02726219911106    1.92425783705802   -1.82818365664182
H           0.06819108625210    0.32888816164352   -1.20065036660490
