    26
        -50.46689726  Gyration_radius:  2.50033061824 Dipole_moment: 1.914
 S          -1.17865240602801   -1.29676826319327    0.08051259657426
O          -1.70865641122713   -0.88263239138553   -1.20996591838049
O          -1.08924755959506   -0.19291466581155    1.02107970509302
O           0.06499561624498   -2.02410337719527   -0.05174971206938
O          -2.24071784809563   -2.29259269113815    0.71189462739218
H          -2.38010245833254   -2.95574083838204    0.04225331902018
H           1.67903205962770   -1.64106366667892    0.71715136003045
O           2.32309500634347   -1.08777430877240    1.19368466735194
H           1.93076113309227   -0.99228478097810    2.07963998328880
O          -1.48543069004866    1.79151454863434   -1.65039824485878
H          -1.70200481849953    0.88395087382402   -1.36893749868179
O           0.34507105803220    3.40831765340928   -0.42608407438445
H          -0.07419531468273    3.92774591979390    0.26121066912046
H          -0.37774104640774    2.94525976267654   -0.89609077142703
O           0.43275876537711   -0.82410071356072    3.14691126231352
H          -0.19672164849993   -0.55273399936691    2.45119410317872
H           0.00870757714616   -1.53545796942168    3.62821789940170
O           0.65292499325417   -0.52727430586541   -2.36936777739646
H          -0.27159164301698   -0.70554843806456   -2.10119007894309
H          -1.28966637774262    1.72660750759926   -2.58787914241852
H           1.12098910692405   -1.34819637371222   -2.19558272076440
N           1.11327803782464    0.86072429851200   -0.09460376337388
H           0.21322363150524    0.61824259326595    0.37289308201426
H           1.85331303243350    0.32412935920082    0.42971812430324
H           1.05826946245658    0.47953622963563   -1.06821960159780
H           1.19830873187757    1.89315801697489   -0.11629208471463
