    26
        -50.47336961  Gyration_radius:  2.47366704787 Dipole_moment: 1.162
 S          -1.39865400458282    0.21714441058915    0.19357247795739
O          -1.03989069698973   -0.76813391159204    1.19876400387271
O          -0.99130649709573   -0.21475874949701   -1.13862660729325
O          -0.85642787099333    1.53819312869185    0.50827172397369
O          -2.95353207951435    0.32380021736862    0.21315780780533
H          -3.14158569397252    1.13614099520381   -0.29753002526075
H           0.41912152970381    1.77444895069918   -0.61406185133931
O           1.05706841576172    1.73265176593445   -1.35231094128029
H           0.55780044163818    1.33345554753438   -2.06962207083000
O           0.31721271818821   -3.04860187049006    1.28860062302646
H          -0.35585781599312   -2.34018800613991    1.34958185066023
O          -2.76173254842083    2.74096278633308   -0.83719178231508
H          -3.16211413321852    3.48199122780862   -0.37704105387783
H          -1.91950797088327    2.54679475610867   -0.37854125152536
O           2.70918153966299   -0.09391315740180   -0.29779712184978
H           2.30898863532401    0.67586736886092   -0.75947960160138
H           2.40333432032852   -0.00053717699398    0.62957941815800
O           1.30506800890828    0.23544588424496    1.97912865647679
H           1.14228315088730    1.17996947727524    2.03687185304434
H           0.42973645152208   -0.15085835066911    1.77981088459322
H           0.93471123178924   -2.87368522205336    2.00307001469162
N           1.00734595467149   -1.91129063312280   -1.03424464023939
H           0.82152599718434   -2.52196327984739   -0.20124001510910
H           1.82041982828591   -1.23982871878045   -0.79436968699929
H           1.19157976253010   -2.45821514283525   -1.86748977087823
H           0.15523132527245   -1.29489230725059   -1.16086290384793
