    26
        -50.47250290  Gyration_radius:  2.48723139157 Dipole_moment: 2.875
 S          -1.83067581237996    0.38629670234350    1.28181160653351
O          -2.55330730975520    0.07909865896083    0.05346277177148
O          -0.65095665492795    1.19161441702630    1.03012194341936
O          -1.56195548733419   -0.80315799399208    2.06710459308458
O          -2.79785865790100    1.28378541974231    2.15870922767719
H          -3.46014548716725    0.64854884569094    2.40823737437920
H          -0.43408245635017   -1.72240788201814    1.41722762273370
O           0.48429602113737    2.24180470218923   -1.18323373270631
H           0.08642087742084    2.12750596643853   -0.30047209508363
O           0.31376046999897   -2.25034094484839    1.03222627113160
H           0.18706898296449   -3.14930567400181    1.33907821774785
O           0.91191656559245   -1.54621119930079   -1.53977655752600
H           0.69924690103911   -1.89774019110049   -0.65446669687369
H           1.63530098353782   -0.90979847756281   -1.39634402140331
O           2.58959458613242    0.50771161059084   -0.79293237227676
H           2.32647034625901    0.37555273465642    0.16407223458797
H           3.53294525849877    0.67108992468275   -0.79432485764334
O           1.70843636373943    0.08687692279749    1.62186131419038
H           0.86377886759070    0.57731621284935    1.56443946157033
H           1.44693114674731   -0.84550396908226    1.61070381567037
H           1.34384084197931    1.78508670563248   -1.12945552815298
N          -0.98268249562773    0.22895053583784   -2.02159185597884
H          -0.28853466839818   -0.57026153937552   -1.93215911146747
H          -1.68288750934572    0.15143988783323   -1.22794868581536
H          -0.43726488390008    1.12809703859622   -1.85545517767708
H          -1.44965677955252    0.22395157541386   -2.92089575188981
