    26
        -50.46147008  Gyration_radius:  2.59207099866 Dipole_moment: 4.208
 S           0.05984334700536    0.55572797475391   -0.49062623662785
O           0.35985213393798   -0.85759640721017   -0.30942003878149
O          -0.97017842048834    0.72140218829215   -1.53079353587955
O          -0.66267305265078    1.02378722818689    0.82579540960462
O           1.22630661719291    1.37907983409652   -0.69998924103317
O           2.83645687466373    0.65567190118329    2.72796730306914
H           3.72517703789277    0.88316194600824    3.00525483154613
O          -1.39822279273327   -1.52174398279920   -2.97179564661686
H          -0.60871117381150   -1.75992630783348   -3.46003169408644
H          -1.21271335410285   -0.64951042291378   -2.56990035057882
O           2.94923856369354   -0.41917152825070    0.29201186345959
H           2.18738216657660   -1.01132880523791    0.21140135259644
H           2.65090402559352    0.36165868137190   -0.20332849026717
H           2.93134899324212    0.15912383687919    1.87948509037445
O          -1.71330636579751   -2.45774219805536   -0.47241317975919
H          -2.54757318416171   -1.25509701663407   -0.17953877671054
H          -1.72975174051013   -2.45275128459665   -1.45146079295177
H          -0.84460238435564   -2.03642208615820   -0.27073605950980
O           1.18107710948020    2.50828814323736    1.73988910932555
H           1.51343534838754    2.49399008951396    0.82928366204637
H          -0.01194936115361    1.63508252579449    1.30448217121122
H           1.76491351329723    1.89572421448301    2.24582374803544
N          -2.89545371460384   -0.21213490867619   -0.11162619363428
H          -2.21686926943421    0.29495380755055   -0.77686353155597
H          -2.70681623185377    0.16105388834606    0.81752503740149
H          -3.86711470533042   -0.09528133137904   -0.38039579070326
