    26
        -50.46728548  Gyration_radius:  2.48773458255 Dipole_moment: 3.870
 S          -2.06736069344834    0.23505602856600    0.53343711105821
O          -1.35045911608907   -1.01816179129757    0.60698113584302
O          -1.88277511757542    0.87915654449614   -0.76826730816184
O          -1.80201753035116    1.14089344270803    1.63179868693529
O          -3.61159706257621   -0.12114503275220    0.63608104738062
H          -3.97076543622024    0.64177921434506    1.07756034836785
H          -0.20553084416659    1.29058244880070    1.36765948600883
O           0.72633839811038    1.35570663172636    1.05353437932084
H           0.74124154417883    2.13973091286113    0.48694528431997
O           2.68609228704448   -2.15458761812873    0.33717293605704
H           3.53175260314967   -2.18033764845184    0.78602914656824
O          -0.83760548701642   -1.17480417187356   -2.02102566942897
H          -1.06477984997955   -1.81938751818284   -1.34010540224799
H          -1.34395599927605   -0.37830123661696   -1.74961778969445
O           0.20286834902884    2.41524484748697   -1.42301603891527
H          -0.11269159761438    3.16056184395738   -1.93500861473526
H          -0.59336164045431    1.87835373634327   -1.22226726736212
O           0.86246741156998   -1.35564933965814    2.07724712276856
H          -0.00082103903545   -1.36983773514389    1.61798314525823
H           2.00263212745205   -2.01261969193645    1.04144024700566
H           1.03983848436677   -0.42192126732288    2.22992426563937
N           1.42832930579236   -0.22678411759368   -1.01814883689266
H           0.56921620242058   -0.64990937564297   -1.48336941334448
H           1.89443637892607    0.39727597242474   -1.66947241644767
H           1.10637523295271    0.33753829422669   -0.18759149585599
H           2.05213310879265   -0.98843338334343   -0.66590408945294
