    26
        -50.47250310  Gyration_radius:  2.48711953583 Dipole_moment: 2.880
 S          -1.45129604262829   -0.01674088956618   -1.74231054265754
O          -0.54977407487137   -1.03440437976800   -1.23698876725103
O          -0.74111766072583    1.19466823479297   -2.13402516307492
O          -2.56090375540384    0.26641176249278   -0.85227163220027
O          -2.08857308217567   -0.61091024891968   -3.06546962520987
H          -2.76585389223578    0.03167779188075   -3.24658194858027
H          -2.08176531311028    0.67598360468290    0.61138246287394
O          -1.76776005458256    0.86751035660799    1.53383686824631
H          -2.45574949691356    1.39510727826506    1.94213325042054
O           2.12095067253021   -1.18293594132615   -0.87412029678013
H           1.20264640848137   -1.36182618323366   -1.14898359304463
O           0.90723320484915    1.41381426040584    1.66371832689659
H          -0.06255129912366    1.30521615119873    1.67650638140773
H           1.26662254797747    0.53562476829476    1.88470575968333
O           1.63755253481721   -1.23582754236877    1.83889272795388
H           0.68732608546744   -1.50944885863953    1.68178192097737
H           1.97700990003490   -1.81534744579920    2.52109135876981
O          -0.86059529974102   -1.75649409583806    1.31615379591936
H           2.12400502566848   -1.32547990514693    0.09012432186042
H          -1.32986390450143   -0.97366898572269    1.63986791362667
H          -0.84030136861279   -1.64382706355749    0.34450338803515
N           1.54654227286206    1.38139065911142   -0.89806609168043
H           1.32219411013728    1.54182828993887    0.12784666480934
H           2.17967435336144    2.08490333944537   -1.26008850746812
H           1.94985507430444    0.39886832062285   -0.97314285773668
H           0.63449308425709    1.37390674212381   -1.44049611575751
