    26
        -50.46147049  Gyration_radius:  2.59172866336 Dipole_moment: 4.212
 S          -0.32923888566848    0.61478779728261   -0.26457209697048
O          -1.38477747801741   -0.52026798489241    0.00212479356264
O          -0.69069246536045    1.77854656902944    0.50822783491638
O           0.96848094572144    0.05401039681751    0.08483366603479
O          -0.40863760481981    0.82864667263548   -1.72008232790942
O          -0.72190551503726   -0.01666121220709    3.92292725748405
H          -0.77916391156580    0.39178313842949    4.78798821364118
O           1.98611328767516    0.64072588067107   -2.95279393422587
H           1.11246686191718    0.83577001166054   -2.55854512243600
H           2.57476651209528    1.33048927587612   -2.64282990612918
O           1.07710721073655    1.30530761726735    2.46758119022648
H           1.43111155182998    0.67307398509515    1.82523186464640
H           0.45202435824063    1.81455851322735    1.92541501265065
H           0.03026359950349    0.42464904888658    3.45929982366812
O          -2.52252876448279    0.51658126800991    2.01938561094284
H          -2.12176032208079    1.34025732609326    1.70190972657497
H          -1.91617183945891   -0.22808062600127    0.81352272552212
H          -1.97582907788633    0.23430702938129    2.78966789073580
O           1.91526106072546   -1.69573565775343   -1.62638603287165
H           1.69963073586714   -1.16291138699123   -0.82489103822034
H           0.50671652704172   -1.86272097623531   -2.09219898583971
H           2.23244785990252   -1.01508638769867   -2.25477994775194
N          -0.55192889828774   -1.66304518534692   -2.32126148618946
H          -0.60735880777958   -0.59257483921691   -2.21312604893323
H          -1.14825741840881   -2.04892632835602   -1.59080369498439
H          -0.82813952240960   -1.97748391566491   -3.24584499810605
