    26
        -50.46172559  Gyration_radius:  2.64717089057 Dipole_moment: 3.647
 S          -2.32735546312458   -0.15680317442254   -0.64080808442689
O          -1.81864789853801   -0.77846247048950   -1.83459849637782
O          -1.41118516649017    0.87955596508339   -0.14295003576653
O          -2.68535983340149   -1.08437409552151    0.41928053908623
O          -3.66939442008574    0.59156597304870   -1.02394685833209
H          -4.09011566055339    0.67956311426203   -0.17471902193935
H          -1.37004379209345   -1.86743286248920    0.84481566856252
O           2.28624119526659    0.95532730563599    1.34388022622096
H           2.90956793882762    0.40404916411202    1.81839647470966
O          -0.50425122565701   -2.28281389291510    1.10529235257163
H          -0.73270200689196   -3.10319520663380    1.54588066208564
O           0.45089907822410   -2.09860920210720   -1.47443139280457
H          -0.42142246874930   -1.80917030218079   -1.81202165108543
H           0.27478296643057   -2.36093202515565   -0.55367449890876
O           2.53018523361390    2.77464991746268   -0.88356576674282
H           2.59561261841912    2.39041388727579    0.00071464359945
H           2.43190137831933    3.71981083674906   -0.76411014986841
O          -0.10780964245241    0.27780787061372    2.13159072416351
H           1.39485986230102    0.79632484543036    1.76492386728303
H          -0.68445896101889    0.62899887863399    1.42547382457363
H          -0.14433007635653   -0.68414447750900    2.00806157491566
N           1.03341253693231    0.42662829747188   -1.03916861142337
H           1.62922162467131    0.53102239708293   -0.19347043534351
H           0.05204030564086    0.71279423053994   -0.77630900399833
H           1.40184058990335    1.04880542466012   -1.75593137226986
H           0.97651127686176   -0.59138041863356   -1.33860518848521
