    26
        -50.46944009  Gyration_radius:  2.47833022547 Dipole_moment: 4.358
 S          -0.53398476312979    0.95701914505962   -1.75959609951441
O          -1.33601494284741    1.08819215878037   -0.55147175244697
O          -1.02530534711356   -0.03851945688570   -2.67925246978386
O           0.88213225033049    0.79219701920619   -1.44654508514329
O          -0.66804610013891    2.35498022949431   -2.50027539626986
H          -0.51114862881759    2.12075093999750   -3.40900278211770
H           1.44659754809140   -0.73627022162378   -0.99267142459705
O           1.48357294440782    1.16601765027255    2.55867734029957
H           2.42987945781691    1.31645001075681    2.58322902661657
O           1.51179579907047   -1.63452653210725   -0.60269656329991
H           0.73504311692676   -2.11190259338258   -0.98139530305541
O          -1.95861574850918   -0.95141506389546    0.89240385248877
H          -1.75643641535628   -0.16935899126024    0.31039655898075
H          -2.78462869636101   -0.74190381877690    1.33103652068607
O          -0.91168527949462   -2.36587367565939   -1.37556090393980
H          -1.47383501933594   -2.15155076431776   -0.62114551905476
H          -1.01356902949353   -1.61558128808288   -1.99456682708509
O           0.66247980555578    2.55288531153077    0.49381196570695
H           0.99462207372024    2.00687106220488   -0.24554522828426
H          -0.29413446745950    2.45043391710950    0.40495375277048
H           1.13946259945088    1.76175519620116    1.83643397559797
N           0.59690968008467   -1.21956539897954    1.77562239479503
H           0.78668729940945   -1.96686702524142    2.43404265763723
H          -0.42467872682630   -1.14281736441444    1.59239854190728
H           0.95804403233466   -0.29676220735870    2.13868408219003
H           1.06485655768126   -1.42463824863939    0.80803467491555
