    26
        -50.46551648  Gyration_radius:  2.57216540561 Dipole_moment: 5.395
 S          -1.35810007758688   -0.93884852376193    1.62271637851315
O           0.06943230841462   -1.26450547818146    1.61660296327312
O          -1.95350700894681   -1.05336563142441    0.31112374486670
O          -1.59739578862461    0.34211506812970    2.26390074003376
O          -2.05442505854464   -2.03130425144125    2.53032276349319
H          -1.76153622653451   -1.79395285054380    3.40412122608778
H          -1.16824226360885    1.63494907175912    1.42854560891554
O           0.66587379433155   -0.14536148105908   -2.16450964335046
H           0.46009845522274   -1.07831271519958   -1.92281095569807
O          -0.79626231220962    2.37726060949732    0.88192455019727
H          -1.05094561617193    3.18753918279089    1.32550272269633
O           3.37220882756507    0.54029966885327   -1.47912872651636
H           4.14942149698545    0.38873136850427   -2.01748251390827
H           2.60945830745890    0.29513326986817   -2.02158933171483
O          -0.03269939593859   -2.40923982563493   -0.93988607960373
H           0.49091003230196   -2.49894611480286   -0.13724271612317
H          -0.88226146494853   -2.05060224139072   -0.61975657402827
O          -1.63475525909782    0.99146328478723   -1.45534027275650
H          -1.93943418011050    0.24034701080943   -0.91654755017051
H          -1.45286259215434    1.69706702237757   -0.82073172426024
H          -0.20952142399973    0.30246535397439   -2.19685155805366
N           1.23180614319945    0.66828409594910    0.28187801304408
H           0.69640230141593    1.52132190317451    0.51071065149796
H           0.88596442659115   -0.11486741770784    0.90033518026041
H           1.02128370161123    0.38438730011663   -0.73022861284221
H           2.23908887338799    0.80794230054453    0.34442172614689
