    26
        -50.46829474  Gyration_radius:  2.53046438706 Dipole_moment: 2.933
 S          -0.32348204427381   -0.76384282850741    1.97483258229616
O          -1.08857568012321    0.42337962245185    1.61986643594068
O           1.07807106823627   -0.64093110579041    1.62781360833497
O          -0.94421561228465   -1.97332339917789    1.46725922689616
O          -0.37399392627812   -0.86787670608302    3.55388302541114
H          -1.30013298500322   -1.03709752759334    3.68470718594881
H          -1.01215030377750   -2.11887839128241   -0.10688172986109
O           1.59714328420004    1.67234972945481   -1.22303498329953
H           1.93523659008806    1.86609475278957   -0.32324914305591
O          -1.00380277791108   -2.23271035868557   -1.09632347072114
H          -1.27703791818903   -3.13831287290220   -1.25213860218203
O          -1.86704303566187   -0.10572390139204   -2.48453286517491
H          -1.29076995298462   -0.12723416695643   -3.25144183205576
H          -1.66622899380554   -0.91967294039736   -1.97473764036647
O           2.11086477140421    1.78805054434960    1.40992427490330
H           1.67942487685943    0.92012724196112    1.56806101178800
H           2.98604633499348    1.71681114593866    1.79425889307764
O           1.50466496773303   -0.99508656646381   -1.01422153279394
H           0.71706040303741   -1.50417179699795   -1.25093239926723
H           1.69838046121950    0.69929184487775   -1.31745447084632
H           1.49464754490310   -0.96401266177008   -0.04018446115214
N          -0.94597626609998    1.67799787967567   -0.67771355483846
H          -1.41643409498589    1.07232726692467   -1.38817345916523
H           0.09979497532223    1.76631144428669   -0.94019236975671
H          -1.38779751685178    2.58861385892695   -0.62291427326199
H          -1.00369416977792    1.19751986235454    0.26352053319561
