    26
        -50.46787103  Gyration_radius:  2.51289283957 Dipole_moment: 5.326
 S          -1.74978076051393    0.66292484319541   -0.73604332246236
O          -0.51286603837412    1.28498400132355   -1.21708851804568
O          -1.68388549229819    0.30917866723204    0.66149625388921
O          -2.14941357429073   -0.42924961647216   -1.60424463592738
O          -2.87529928959911    1.76833679120029   -0.86555573983191
H          -3.08546015613276    1.77120234832902   -1.79406228683533
H          -1.18675066483778   -1.70760551490855   -1.54334766168479
O           2.17730423383947   -0.84898973389372    1.11244423551828
H           2.16289535363889    0.02457289889545    1.56782774215605
O          -0.50676723534220   -2.42975934732765   -1.49665338399794
H          -0.85902257093034   -3.16027149194212   -2.00738850456400
O           1.91162516565774    1.54712506470022    2.24558312267232
H           1.78188894917507    1.57561370515902    3.19446698985561
H           1.11983631812081    1.98322180949191    1.84987814699255
O          -0.32408998814872    2.53824171699098    1.17355476427143
H          -0.94389721058781    1.80355816742198    1.31606905264140
H          -0.18843534817876    2.51862406101878    0.21690568861909
O          -0.25643689745794   -1.89643333197005    1.29373688303216
H           1.34918531260895   -1.31202735193971    1.38343695898020
H          -0.83971820428988   -1.11946497623367    1.22064423403664
H          -0.35707266232655   -2.36614607413870    0.45554003555795
N           1.42061080246410   -0.50065148345167   -1.31052635941148
H           2.14735322043249   -0.32219300469844   -1.99439388895069
H           0.89760059024809   -1.36437396248844   -1.53147535909437
H           1.83674135570375   -0.61346244492046   -0.29086170982100
H           0.71385479139180    0.28304426941668   -1.29994273758648
