    26
        -50.46364089  Gyration_radius:  2.49479709782 Dipole_moment: 3.030
 S          -1.06339014387986   -1.41742272720641    1.19604049059321
O          -1.06991322287531   -0.99253199740433   -0.20307072023279
O          -1.27882065173637   -0.30013051528812    2.09077794517758
O           0.11389832817431   -2.19155982793260    1.53742067806692
O          -2.30595945760101   -2.38450696315697    1.33805610666684
H          -2.24569390720922   -2.65095042731461    2.24905702131202
H           1.41724891105283   -1.28244172141221    1.39907222256134
O           0.92782696018868    1.39138498838494   -2.42855176861570
H           1.75541607152897    1.80687407814289   -2.67182856917425
O           2.18258296893245   -0.66723362765479    1.24583814710073
H           2.93152430163376   -1.06390332176582    1.69420648965739
O           0.67295344502512    1.48989707232698    2.02706779629956
H          -0.05480435684364    0.89930969204532    2.31415935862786
H           1.40348180629653    0.88281099569771    1.81441781523067
O          -2.02600609665453    0.54610359664715   -2.42952455727170
H          -1.19899458892125    0.63540052296335   -2.91142650436929
H          -1.93037546356746   -0.23354269470878   -1.87094996467809
O           1.36164555731502   -0.97073803191648   -1.38371309789662
H           0.46852440305977   -1.18648960830989   -1.05952001820191
H           1.14907625424900    0.46282254906737   -2.14501646681648
H           1.89017924074199   -0.86316442072753   -0.57672738374730
N          -0.62323479455342    1.64756449867721   -0.24528007662579
H          -1.44134429209847    2.24561039807354   -0.30554503026463
H          -0.03323544002993    1.75139524496607   -1.10355412464931
H          -0.06425172028799    1.79970143689310    0.64874162454325
H          -0.93833410187306    0.64574083089046   -0.22014743327677
