    26
        -50.46111924  Gyration_radius:  2.71313588563 Dipole_moment: 3.928
 S          -1.65582931363172   -1.25267604932254   -1.32877103212772
O          -1.05103884672858   -1.94480056842907   -0.21126511892718
O          -0.67526465566813   -0.53271342326577   -2.13696094164119
O          -2.75371236283702   -0.38491437334919   -0.93013263030381
O          -2.27462779533886   -2.36498504350063   -2.27123280031724
H          -2.61830848890782   -1.84294204114481   -2.98902684682403
H          -2.40647379952728    0.88097438040745   -0.03484154656464
O          -2.09372758739953    1.63855634360609    0.53187407841695
H          -2.77334377393149    2.31096281194543    0.47104065245873
O           0.97770004035130   -1.12817269888591    1.29840981656348
H           0.45427836805614   -1.68234289307149    0.68488409605809
O           3.52108013718226   -0.33370920108131    0.56834378391991
H           2.70462906124722   -0.67874292089855    0.96843779022062
H           3.84338801229995   -1.02141615606034   -0.01646621846190
O           2.88349069355607    2.06990717083423   -0.49313881164065
H           3.24368080846209    1.22558123841580   -0.14677407496432
H           3.28370788884733    2.76745117939065    0.02717092010324
O          -1.49093028295257   -0.60109944547374    2.19415908455658
H          -1.64416061877747   -1.19495476020395    1.44220189967690
H           0.33597609183609   -0.95001197721277    2.01311313072637
H          -1.81382310581310    0.26196750670389    1.90601607238837
N           0.40823075741448    0.97789413168329   -0.31087425922263
H           1.23249509093966    1.57400100108924   -0.51785861480227
H           0.69046853842923    0.24904398311060    0.38811508055945
H          -0.39718469983249    1.50894869734423    0.05748779699917
H           0.06929987300248    0.44819310663338   -1.16391129723287
