    26
        -50.45741761  Gyration_radius:  2.44342443926 Dipole_moment: 5.085
 S          -0.62902790246583   -0.95412963589882    1.70323732760110
O           0.68391464473346   -1.44837044725532    1.30094519044806
O          -1.21119492642375   -0.09626007615634    0.69713691503245
O          -0.62982334498336   -0.40408144886556    3.03889294298542
O          -1.58571404064109   -2.24091495889580    1.76040371926112
H          -1.40825687275537   -2.63742321795525    2.60873275533138
H           0.10928716969818    1.00567695013926    2.56898410775820
O           1.81133813170220    1.84408153840341   -0.07406552037657
H           2.63865949387754    2.28087769742418    0.13362989280420
O          -0.68055981862106   -0.02282551857782   -2.74401037323142
H          -0.80691568347441    0.24514252601553   -3.65403749510305
O          -0.90693324580521   -2.39501033027682   -1.07112803574858
H          -1.29396669810261   -1.66747465994239   -1.56997259043959
H          -1.21523698663950   -2.29243298575346   -0.16746806486955
O           0.39765124474851    1.84323164886774    2.14447357982444
H          -0.41758092243932    2.31362449836083    1.95080652433979
H           1.31710050915065    1.78338545128484    0.78619716559250
O          -0.92101580115843    1.93433067742028   -0.99590108657988
H          -1.15700285018825    1.27179821103815   -0.31685438005651
H          -0.00512024229948    2.17438988953558   -0.80964458026126
H          -0.89299805482362    0.76167835362442   -2.17653005309569
N           1.37642755872083   -0.66094637543544   -1.04758577185261
H           1.67637310843157    0.30417985701172   -0.80192408196366
H           2.13626992213964   -1.22013867467752   -1.41940127296027
H           1.02847002784357   -1.09679930253044   -0.12268257088140
H           0.58585555977032   -0.62558966690569   -1.72223424355834
