    26
        -50.45677771  Gyration_radius:  2.47535451042 Dipole_moment: 5.430
 S           0.35679619322249    1.49615004075298    1.50809734803647
O           1.48863092709584    0.86924797468079    0.86725968520126
O          -0.43601996261807    0.56477206529191    2.30469308651632
O          -0.48866430517708    2.23668354883330    0.58585158645638
O           0.95081304364584    2.54979862388738    2.52900777961165
H           0.17709915147565    2.85207601591147    2.99340806215619
H          -1.46097658740686    1.38622354052815   -0.30074592065312
O           0.27103240551191   -2.36421494674824   -1.12303906207110
H           0.05077092098413   -3.11436798528188   -1.67571338122995
O          -2.08911224971361    0.79845552429312   -0.81189267815222
H          -2.82166235546172    1.36189213833570   -1.06553944579189
O           1.91272350399029    1.34081542197252   -1.70756329073455
H           1.73635965023069    1.26828637934340   -0.74584734365303
H           2.82002948389502    1.05549742319290   -1.82833715319939
O           1.36311247076346   -1.80698163852379    1.44214063850060
H           1.50148875687178   -2.14965134742014    0.55366728103299
H           1.52107606493967   -0.85257773512399    1.37965017140091
O          -0.11574155294892   -0.21016888984111   -2.52173877139923
H           0.19541576885094   -1.55494826085696   -1.70797279637406
H          -0.86662378077890    0.21059291576294   -2.07580430770524
H           0.64479185548703    0.38775373311939   -2.35366231290128
N          -1.35776500373341   -1.28721146318746    0.74983743753045
H          -0.62585643539971   -1.79987012997838    0.19740837604457
H          -0.88262411244774   -0.65063379369589    1.47143316554196
H          -1.87090303685158   -0.64695483880149    0.11424749759469
H          -1.97419081443009   -1.94066431644479    1.22115437823969
