    26
        -50.46147047  Gyration_radius:  2.59169436494 Dipole_moment: 4.221
 S           0.71720610510191    0.19699736366286    0.05032279609175
O          -0.15703679252489   -0.95802499390882   -0.09838626983823
O          -0.22610307538938    1.44990139925078    0.16926001184447
O           1.39680574672206    0.14808726769363    1.35650116023576
O           1.61798724970506    0.39525904594004   -1.05945104010966
O          -1.13388597462858    0.95237319121964   -3.70591709742272
H          -1.01643101573923    0.99077030274421   -4.65628761930404
O           1.16551765699964   -2.24877170979446    2.57843116656183
H           1.38537325616374   -1.40042585925306    2.14411954303433
H           1.59053974813192   -2.93007905603920    2.05539490481688
O           0.22232221705298   -1.13742161293793   -2.75949733140760
H           0.98429806240585   -0.64581931692101   -2.41037891914325
H          -0.22642632476887   -1.41504078009354   -1.94760137826486
H          -0.71679743389356    0.10705595762570   -3.41102846335732
O           0.30316464082806    2.50954608740055   -2.07494984470439
H           1.09539717097754    1.95167105981273   -2.04337338508188
H          -0.30672560927153    2.06964655324131   -2.71251445130921
H          -0.11551644519916    1.97007862110794   -0.69285440854843
O          -1.41422102739371   -1.67668104204590    2.08976952428506
H          -0.64145377010621   -2.14940301122904    2.46158396264588
H          -1.15381325550598   -0.29342952822280    2.58645022678764
H          -1.13536351676144   -1.51072291208334    1.15834259879286
N          -0.69519511992476    0.69627928431960    2.73990895032157
H          -1.17563909584314    1.39700089468357    2.17760740694863
H           0.27386923796883    0.56705099412079    2.28739279117013
H          -0.63787263514480    0.96410179973103    3.71715518497909
