    26
        -50.47018690  Gyration_radius:  2.51447832781 Dipole_moment: 3.632
 S          -0.45947747537372    0.09581622652697    1.47928958374485
O          -1.76859077703519   -0.05986136349717    0.86174634662667
O           0.18042627030659    1.33896675447488    1.07530267578762
O           0.39269948288216   -1.06775840187243    1.21404562345058
O          -0.65316768304092    0.19170022113833    3.02663625114141
H          -0.86757068987229   -0.71837308367025    3.30879344551329
H          -0.22137376973807   -1.91092342217107   -0.56513556361603
O          -0.99776597176056   -1.63098380471448   -1.06559703009151
H          -1.51498057441303   -1.14170516711662   -0.38461109023022
O           2.19650931984902    0.87834309673871   -2.31318194231099
H           2.57215551190729    1.75378395890667   -2.41962850695268
O          -1.56315089379434    2.11370376099729   -0.72064418177889
H          -0.83697471765097    2.11308882106456   -0.06097359468079
H          -2.19433255435617    1.50505786212253   -0.30889002153947
O          -0.67795833832319   -2.46015626408017    3.16598798453134
H          -0.00628266533230   -2.86152313508484    3.72177753112130
H          -0.23030343136426   -2.18201623955201    2.34100462835218
O           2.48548769487105    0.37817077434078    0.24393674530944
H           2.38327265226225    0.62326508335458   -1.36864260711926
H           1.78287197208111    0.95990748185753    0.59711579363986
H           2.17275356302023   -0.49503489509016    0.51284190521285
N          -0.43556648901078    0.51944927206072   -2.49495938730107
H           0.60724490946738    0.68196548134581   -2.49279686110053
H          -0.80318694029120    0.54295237278632   -3.43986298393133
H          -0.63532214615273   -0.41932299871870   -2.03600265006900
H          -0.90741624900384    1.25148759766779   -1.87755211376979
