    26
        -50.46116169  Gyration_radius:  2.64577607046 Dipole_moment: 5.344
 S          -1.65409785265270   -0.49980425353603    0.42275282617718
O          -1.12383085470889    0.57824295751632    1.28703289253863
O          -0.70426202565289   -1.58427448001825    0.31402185309814
O          -2.03308771885857    0.03605564997349   -0.87259861038759
O          -2.93085858732097   -1.05704621477080    1.12643237701531
H          -3.44535642269248   -0.25375773812392    1.33855660215912
H          -0.93343317094540    0.72893385354696   -1.77091054333742
O          -0.16125208272884    1.14118623303212   -2.25070393261852
H          -0.53377715077214    1.83284320760669   -2.79914974557917
O           2.00330319824593   -1.68573401626551    0.03142661987623
H           1.19998760876795   -1.97295174798759    0.49392971870327
O          -3.54443510503168    1.41795078966493    1.86580024643537
H          -2.58412660174346    1.36445494964503    1.68359941000711
H          -3.63617716546956    1.53011352884154    2.81466227858473
O           3.75493929529767    0.41744176842410    0.96203187638799
H           3.43965056613420   -0.46861548966440    0.73690641541655
H           4.63758218878593    0.31154991926929    1.31830348023770
O           0.49886436959434   -1.66465252140122   -2.16773651195568
H           0.34155805657875   -0.78947143222391   -2.54077025900990
H           1.77613198063927   -1.84877046852428   -0.90916819060030
H          -0.16204158677905   -1.76709810926559   -1.46228809657622
N           1.16986228424787    0.87492960428517    0.07623577620591
H           1.91938446708687    1.44838977513512    0.46137982876490
H           1.53042018613888   -0.11804346092887    0.02865903931463
H           0.30281206428897    0.85546347318716    0.68518133160342
H           0.87224004946830    1.17266422248308   -0.87358666230178
