    26
        -50.47071266  Gyration_radius:  2.41596897637 Dipole_moment: 4.176
 S           1.56658763661541    0.01960357077120    1.28839992964075
O           1.74922547921546    1.21201315320592    0.47715243948599
O           1.59935347131858   -1.21409209909734    0.54065552413218
O           0.37071614268975    0.11978829132730    2.12744390220612
O           2.79982675907838   -0.02737594544705    2.28008155360856
H           2.84536476856560    0.87015724713518    2.59133808858312
H          -0.47953721044463   -1.26475286045097    1.86218206632522
O          -1.88346563667543    1.37848940165932   -0.97267016299717
H          -2.63050101916772    1.94691785279538   -1.16265084014167
O          -0.81147230156762   -2.10945766472122    1.47824968834357
H           0.00221995517222   -2.57417421564501    1.25249125482523
O           0.78490883947283   -1.47125450138698   -1.98218947423303
H           0.89417110090953   -0.52836302561692   -2.25194669509307
H           1.26211257132025   -1.52298557421333   -1.12929774880587
O           0.78052717159096    1.17019390475863   -2.04419936550287
H           1.25174093870032    1.24927372855924   -1.19269667772985
H          -0.14154906044419    1.39203735996889   -1.85798087156378
O          -0.60035840643000    2.31258172621421    1.08390688481374
H          -1.44619512825919    1.75877247903535   -0.15474873875575
H          -0.48729963263784    1.54263608329778    1.67580866038351
H           0.29271921449270    2.40227109332171    0.71564402428223
N          -1.57518778853128   -1.33638065008540   -0.93154774502180
H          -0.63016005287276   -1.45774318384478   -1.46433648001090
H          -1.81331062379743   -0.32598965848104   -0.93731231237782
H          -2.31375188198888   -1.88472321624002   -1.35751520160766
H          -1.38668528632512   -1.65744328681978    0.06573829721042
