    26
        -50.45619608  Gyration_radius:  2.57746608661 Dipole_moment: 2.909
 S          -1.29178775610475   -0.68632853580081    2.02310677743687
O          -1.65805130349924   -0.08212559739300    0.76799980489466
O          -0.38108781473226    0.16554134280767    2.79075956015862
O          -0.77241416625792   -2.04047194209148    1.88774713728203
O          -2.61885722480893   -0.80731684593826    2.88858660430913
H          -2.32785120419560   -1.26126103432193    3.67436101700211
H           0.39911136714469   -1.83364676074075    0.88642894491474
O          -0.32124902096082    2.47700419443329   -0.94483075852680
H          -0.99860550454724    3.01802499300290   -0.53669515433888
O           1.18446221051410   -1.64061004822544    0.29689443688540
H           1.88535569076654   -2.22689430806504    0.58782383692802
O           0.48149474293519   -1.39162341470786   -2.29974923490992
H           0.71250434674162   -1.54669251746824   -1.36061625218891
H           0.23751666380434   -2.24031312666298   -2.67111480097560
O           2.07871456822506    0.94260974223852   -1.75759172664130
H           1.67644979324107    0.18272968935489   -2.19363947883563
H           1.48113880192309    1.67995282946496   -1.91111351108295
O          -1.57465200525895    0.39945866508601   -1.85740195576660
H          -1.80150465511835    0.13313386277413   -0.94792124956380
H          -0.82022492796118    1.72742680217661   -1.39055823048210
H          -0.89391709217778   -0.23290893718275   -2.14690709798552
N           1.07685856181597    1.06762150736857    0.85170162350629
H           1.31644258432894    0.17114177951782    0.39112489618091
H           0.51056912183823    1.64704857075153    0.16806988954100
H           0.48979856574575    0.81662274862449    1.70814645154686
H           1.92978562659386    1.56187632098483    1.09538846072227
