    26
        -50.47071272  Gyration_radius:  2.41591991072 Dipole_moment: 4.174
 S           0.86973410812300    0.11172952273202    1.82889416301811
O           1.90566727749171   -0.01220387104391    0.83205153242296
O          -0.01230745640637   -1.04032580107333    1.91691787505715
O           0.11279024619133    1.35641386245594    1.68016394794733
O           1.60595350285230    0.20670814207716    3.22721507324862
H           0.89099642998353    0.08616735483331    3.84274495410998
H           0.77560108408866    2.13192714831482    0.38791871098357
O           1.28527416221586    2.33615127847996   -0.43036261301029
H           2.12792191727828    1.89620712842980   -0.27092344991426
O          -2.20228142430586   -0.21949872254933   -1.22325534819768
H          -3.09312491194026   -0.16547483864627   -1.57076082813914
O          -0.52838919970409   -2.39710646947110   -0.36079668822525
H          -0.32645553435202   -2.04070118487461    0.52555903724228
H          -1.23166589182001   -1.83802239002549   -0.71709515199005
O           1.65512254946736   -1.37550591960103   -1.44238407859499
H           1.96834069986814   -0.97316548204330   -0.60700955917666
H           0.93793348826266   -1.98708804720732   -1.15031684200559
O          -2.24674973680495    0.28627099664611    1.32438636761476
H          -1.54460930317975    0.95388824416008    1.45630994735323
H          -2.26832114308991    0.01816679339684   -0.25167968000310
H          -1.82027790444472   -0.51088534178300    1.67605312677898
N           0.21333898614339    0.64882525605241   -2.16015236749175
H           0.24858812870807    0.93227510266535   -3.13278703964469
H           0.84617715630023   -0.22128093093863   -1.97507856572768
H           0.58596095950294    1.41673641625504   -1.52404095825042
H          -0.75521820042847    0.39979176275908   -1.88157155540466
