    26
        -50.44963692  Gyration_radius:  2.51707250635 Dipole_moment: 2.273
 S          -1.90659008223366    1.36269108677130    0.58292472699932
O          -1.07570812349335    2.30362202135593   -0.11501690292174
O          -1.26743235762141    0.83261219489575    1.79554451357521
O          -2.39184212080529    0.26330551998254   -0.24088317389753
O          -3.19097044793363    2.14296990556235    1.07765782110888
H          -3.72705973535756    1.44822459166609    1.44570774517963
H          -1.67182959563776   -1.12983199405994    0.36449640473760
O           1.26753365055142    1.38939439039759   -0.91033140262421
H           0.57128206638620    2.06095740595220   -0.78228793844058
O          -1.21548868102411   -1.88818535707669    0.78875459642295
H          -1.45238324944165   -1.82834174985915    1.71691720226681
O           2.89483652659257   -1.00685676325397   -1.10940328151675
H           2.60274165430378   -0.09406141868108   -1.22796285734847
H           3.84451565609425   -0.98384909913182   -0.98175523214133
O           1.20625980264463    0.69472649015693    1.51633695785702
H           0.19173672125996    0.81199673349771    1.71987613757591
H           1.32069231179110    1.03433558490856    0.53252901076081
O           1.43059676447366   -1.75178187352300    1.06211860538755
H           0.48354515808079   -1.94399710528042    0.86726475570032
H           1.91087735666786   -1.71471115344939    0.21277340689632
H           1.35725046069826   -0.35282361713754    1.44751962855186
N          -0.26939947072529   -0.42557312699596   -2.01189647066526
H          -0.11402921374109   -1.40767657959698   -1.82057157199512
H           0.75589289686034    0.66065695944320   -1.39110656751148
H          -0.42682636664754   -0.32694282659865   -3.00645890269145
H          -1.12820159121786   -0.15086019982186   -1.53274720130714
