    26
        -50.47250295  Gyration_radius:  2.48716866342 Dipole_moment: 2.874
 S           1.57448337272492    1.62441945942642   -0.15910493206380
O           1.41172193866154    0.53638619973871    0.78603932828873
O           0.42041443027461    2.51503158079907   -0.16881890115242
O           1.93260413971458    1.18271226901392   -1.49339450954295
O           2.79930346879125    2.48241750991732    0.36376811547863
H           2.94205094052906    3.06562947444866   -0.37371136065242
H           0.89480055472678    0.12782459792202   -2.08499933594444
O           0.27406855938520   -0.57459072457304   -2.41277293290524
H           0.31727806319165   -0.53903234041385   -3.36945626365176
O          -0.52673163328313   -0.18856154081864    2.51926031258102
H           0.32864423425035    0.06053614385594    2.12296000260105
O          -2.03407027091622   -0.73108382327002   -0.95753753028386
H          -1.80967553613961   -1.43733331375567   -0.32523276134373
H          -1.27071360265782   -0.67568409866434   -1.56312075951115
O          -0.95333245711462   -2.40797331365662    0.94256291404347
H          -0.05086029773712   -2.30382805643999    0.52170691651717
H          -1.03643498701515   -3.33177576012702    1.17959825581242
O           1.32738253586649   -1.93539875150645   -0.22380967942760
H           1.53176353319501   -1.07029657081256    0.18485197073368
H          -0.72697689779810   -1.06674403841521    2.14644798046654
H           1.07851017896218   -1.71898532294193   -1.13433780422658
N          -1.71235143236171    1.29606533429235    0.70373315812815
H          -2.50135423109676    1.89685726141198    0.91192453707353
H          -0.88912568351212    1.85963710330371    0.34207791265805
H          -1.36499265555292    0.77356485632500    1.56393701169152
H          -1.95640627508519    0.56020586494733   -0.02257164537142
