    26
        -50.46147003  Gyration_radius:  2.59060632137 Dipole_moment: 4.219
 S          -0.38317321219928    0.55721045666200    0.32592919082886
O           0.96075680908482    0.08727185669522    0.01883567876172
O          -1.37013287803040   -0.50508691853508   -0.28351797174029
O          -0.64934821523979    0.68501311330490    1.73822709527300
O          -0.67420080817540    1.78140421517110   -0.44015600810547
O          -0.11805643988078   -3.04862161121412    2.56050883551547
H          -0.05194219285773   -3.44581684307323    3.43013305520597
O           1.52092123687257    2.87500905873322   -1.57081721828615
H           2.13654008816177    3.16188223941532   -0.89465908285235
H           0.71033339005342    2.59995708587609   -1.09756629518911
O          -2.19946974813343   -1.50668272469957    1.89588001710952
H          -1.53537543038386   -2.19726704512438    2.12785405732650
H          -1.86856685067233   -0.68362886027529    2.28697579080581
H          -1.77399123897365   -0.99858704372463    0.50325873475394
O           1.68008018891087    0.35476597261048   -2.49066893658775
H           0.22240203395504    0.42861067567866   -2.80347315665444
H           1.89265907823584    1.30642876443474   -2.40200216583226
H           1.57343560295014    0.07069654092109   -1.55226719741058
O           1.40713064872923   -0.86392437718075    2.49507998084615
H           0.54466136879613   -2.31655369377750    2.54094740288457
H           1.65958658618747   -0.74182156824631    1.56780104369541
H           0.69808368865869   -0.20818226094675    2.59801988807523
N          -0.86143656894882    0.60362485352626   -2.71384294165983
H          -1.26169250900854    1.06340921808578   -3.52527750334680
H          -0.91851043269751    1.20834499158767   -1.82416774887788
H          -1.34069419537088   -0.26745611592131   -2.49103453452227
