    26
        -50.45346852  Gyration_radius:  2.74452987048 Dipole_moment: 6.034
 S           0.64942685459098    2.38536431461263    1.61705377132637
O          -0.64664045574235    2.88831820777431    1.95813300515764
O           1.05300998547746    2.65369253521111    0.23244345941260
O           0.79472720242869    0.94997836700269    1.90426923500102
O           1.72061114651881    3.12861207999399    2.52233927117910
H           2.55834549133052    2.87802653492638    2.14252852511923
H          -0.83281427641458    0.52302050092298    1.74132765391516
O          -1.73592828630628    0.48128355770540    1.35193868168465
H          -2.12238029353579    1.31616688633721    1.63910268053035
O           1.21678002065709   -1.15260676188313    0.30863639235642
H           1.27498583683150   -0.47448797243610    1.01104227843926
O          -1.23952186971154   -1.43857434313810   -2.32869545511123
H          -1.72787691927507   -1.97902027774479   -2.95035943574157
H          -0.29975964277325   -1.71294652365225   -2.40014345154035
O           1.36966325969107   -2.14644609854781   -2.22523617959399
H           1.56518839070692   -1.80504533796129   -1.33495475861791
H           1.62693769112206   -3.06971000030376   -2.21806571853158
O          -1.27221341821984   -2.12535091995786    0.39474930166592
H          -1.45302690506453   -1.93382914197667   -0.54093989782543
H           0.41162755041273   -1.67957193286478    0.52130739057051
H          -1.70173603810564   -1.42271687707637    0.89870683631282
N          -0.25538942229345    0.75549563997343   -0.88972171607950
H           0.38633163563268   -0.04476274333232   -0.65968186396852
H          -0.56119284109511    0.70813794500495   -1.85781089635180
H          -1.05914520010543    0.67560119237935   -0.22718844484749
H           0.27999048321873    1.64137116903057   -0.61078066446322
