    26
        -50.45346876  Gyration_radius:  2.74457355324 Dipole_moment: 6.028
 S          -2.89017781000479    0.05169690263572    0.60820115093281
O          -2.73420613379742   -0.23503945631580   -0.82206377417555
O          -3.11654553436984    1.43296497683922    0.90816554025239
O          -1.75248310348418   -0.51108033608696    1.35166764577811
O          -4.16897664278738   -0.76876342254592    1.06752088713070
H          -4.03488831718820   -1.63500762087139    0.69270775273490
H          -0.87747489640005    0.92293132144573    1.54244266796444
O          -0.45724975214318    1.78006860657724    1.30230935258857
H          -1.20323735375681    2.38965660041920    1.32918414963737
O           0.59086750271160   -1.50563153623766    0.53727258606415
H          -0.28535690288148   -1.37382032109854    0.95137781903600
O           2.36130013391090   -1.90352473581941   -1.49717213601419
H           3.11415015655600   -2.41808692705118   -1.20203385174355
H           1.67944145558231   -2.00431967103781   -0.80995424553888
O           2.46140922730645    0.79998385284933   -1.52595455238628
H           3.30032849856901    1.11889074137149   -1.85995815189691
H           2.48209962409487   -0.17774183682383   -1.61049858831509
O           2.09289133024176    0.58832426363655    1.25043386122318
H           1.19893108318808   -0.89344981762639    1.01327279720981
H           2.31020801276530    0.83161974952170    0.33473128808721
H           1.39740906932240    1.19682642049254    1.53007449824815
N          -0.28272431426287    0.47869285943857   -1.05748693449297
H           0.17632355740177   -0.37251921730364   -0.64535937542580
H          -1.31771351439246    0.22147906270910   -1.16655257701930
H          -0.23780863933341    1.21356692440188   -0.31631848198796
H           0.19348327314377    0.77228260646657   -1.90600933787412
