    26
        -50.46654166  Gyration_radius:  2.46908767227 Dipole_moment: 5.988
 S           0.98918389317960    0.05259716582929   -0.56480639158312
O           2.28181734592186   -0.13606148355308   -1.38731431666461
O           0.16678215512714    1.07994805431282   -1.16952647910595
O           0.29135318410631   -1.23329326285469   -0.49692626686766
O           1.44649268832682    0.44512487351508    0.77629796434644
O          -1.72344135965215   -1.31674983530284    1.21617686917708
H          -1.07545750949641   -1.52499672908604    0.50879196643244
H          -0.75364489124584   -0.93384286638567    2.24447809370355
O           0.08040371430292    2.28044539700242    2.15093315171196
H           0.27402393896352    3.20008279654013    1.96438816932454
H           0.66458495424766    1.75507342433081    1.56329620477483
O          -1.01317740609229   -0.82972036465967   -2.76837494630114
H          -0.65369915873116   -1.13603229852624   -1.91163692842009
H          -1.15084225173379    0.11508146130911   -2.63992011074337
O          -1.89764327795299    1.20912309392745    0.50225466670689
H          -1.23925967761759    1.21472392960710   -0.22210946650801
H          -2.06348858339913   -0.42532846638975    0.95162164811366
H          -1.47936076641353    1.72602432606473    1.20716985734908
O           1.43878119465751   -0.90979759374427   -3.71207436124665
H           1.66274767356165   -1.83405828181701   -3.83982691991924
H           0.46216965744864   -0.88147124836308   -3.53874788969649
H           2.00710867804548   -0.37752580835558   -2.31527771728338
N           0.11398968465464   -0.50693933185518    2.78951142519617
H           0.78922312898493   -0.24852321381112    2.00401098077156
H           0.52980744632499   -1.15458674437127    3.44927799096920
H          -0.14845447552342    0.37070300665896    3.23833279577463
