    26
        -50.46147014  Gyration_radius:  2.59072038034 Dipole_moment: 4.212
 S          -0.11065202126536    0.72620209222719   -0.14710821295332
O           0.92500355642032   -0.26876945069472    0.09494602309576
O          -0.14597313516835    1.69427916358766    0.96282087615228
O          -0.03440169336065    1.34500251408661   -1.44826823643552
O          -1.48411380407794   -0.03030323534011   -0.02345287545356
O          -0.57549963155735   -1.91046184617758   -3.44807604984106
H          -0.46707703959682   -2.03431874781469   -4.39217637940488
O           2.01206741829184    1.53503545253948    2.57821470218472
H           1.26684075100406    1.72399034294534    1.97354737626503
H           2.80798477600463    1.75675081043333    2.09271044268263
O          -2.14127468565906    0.02623913009832   -2.47402831108952
H          -1.49309857995481    0.74492570018977   -2.53103631188312
H          -1.70126275124497   -0.76098009016474   -2.87212853557095
H          -1.86051150976930   -0.08741826323110   -0.96199042097478
O           1.52418419123473   -0.56285840137652   -2.51122540089494
H           1.61400382113774   -0.81550099652837   -1.58035820030808
H           0.26892409242221   -1.51428924629617   -3.12322044217386
H           1.09795351687966    0.30723645098128   -2.44276715639046
O           1.17666622331855   -1.01913823934340    2.59701186621041
H           1.17487769860618   -0.96122590298225    1.61248030718316
H           1.69272354598466   -0.22823935551044    2.85580803093941
H          -0.21450036368275   -0.51343797321714    2.79080416644345
N          -1.14637424898790    0.06204007580261    2.67352192162725
H          -0.83011123037733    0.87573672713067    2.04242467417013
H          -1.53528802525132    0.37957890456968    3.55557041025692
H          -1.82109088135309   -0.47007562592525    2.12597573615934
