    26
        -50.46398710  Gyration_radius:  2.49808759506 Dipole_moment: 3.878
 S           1.76665376242030   -1.36567425476389    0.26072666040487
O           0.39349119162594   -1.64415363004877    0.69018984179038
O           2.19311535444855   -0.03777051872373    0.65853985653249
O           1.95381878517914   -1.65806966423917   -1.14315154446257
O           2.69139913054064   -2.38356728874233    1.05616717401693
H           2.64097400251242   -3.17363297522157    0.52707604437017
H           2.02616718194209   -0.09577879688906   -1.95318871630535
O           1.95136516161309    0.86807243650886   -1.80102082070831
H           2.21766241662101    0.91782018039867   -0.86444685620338
O          -1.30696601710181    2.06918799384791    0.80532469785830
H          -1.31635117199755    2.92544372206533    1.23386108711231
O          -1.49074269186591   -1.25900984372102   -1.11562726091634
H          -0.74545963397562   -1.56781210643669   -0.55531408518822
H          -2.20143671492516   -1.04885426650872   -0.47474153267282
O          -2.91673191695500   -0.23796474377994    0.94818909850504
H          -2.56113001036673    0.66325634138141    0.91595168471112
H          -2.49170930073055   -0.66333203861260    1.69690484847464
O           0.11263965247079    0.43597540981254    2.23030943658276
H           1.04077767678469    0.64972280833787    2.05454876393134
H          -0.73447713044895    1.47338552850757    1.37911791624479
H           0.04115141710408   -0.43273719799830    1.77429026354098
N          -0.66021024394476    1.13536384016442   -1.68050998170977
H           0.40417306905265    1.09165588285226   -1.78697752717302
H          -1.01948555459416    0.11898192544032   -1.55234439997209
H          -0.90139619529837    1.64985594339368   -0.81285173432810
H          -1.08729222032673    1.56963528283167   -2.49102292437310
