    26
        -50.46147058  Gyration_radius:  2.5914471788 Dipole_moment: 4.225
 S          -0.20961098369977   -0.12965286533935   -0.70585629932995
O           1.30672058751166   -0.49099106796715   -0.49597468674746
O          -0.82930761931085   -1.41977243048817   -1.05495798451047
O          -0.70282612575947    0.32457884783636    0.58683203573024
O          -0.31250070003651    0.85938938395837   -1.75155455875390
O           2.02165572345698    3.43683494333265   -0.07633433285447
H           2.16084946563033    4.34687384534639   -0.34255046250284
O          -2.93462072294627   -2.04580394814705    0.51630375626866
H          -3.63757708452397   -1.40460762437227    0.40162930524862
H          -2.26034241309298   -1.82869116395445   -0.15812676638890
O          -1.04275001098170   -1.57416319741660    2.36563204798139
H          -1.90193989643053   -1.86378035162628    1.99579807889139
H          -0.10216927166232   -2.38973912260582    1.54218723558981
H          -0.88441867693634   -0.72118164895111    1.89642205898113
O           2.31529183809109    1.42744730885562   -1.81603052301329
H           1.83712826029010    0.22438000632372   -0.97846992777838
H           1.43495859772750    1.48667731658905   -2.21772833493941
H           2.36713113540834    2.17631353330346   -1.17696547561383
O          -0.59517984746586    2.93287405457754   -0.07522109462707
H           1.04533026797230    3.32513875382213    0.02275803254080
H          -0.63184898368936    2.44515055772406   -0.91474387085615
H          -0.73728166658281    2.22755660122980    0.57291451152444
N           0.46576471286707   -2.79018779417195    0.68746550024744
H           0.49050052938951   -3.80447449161236    0.66285446579267
H           1.39934691864057   -2.38284590045441    0.66451165211246
H          -0.06230402383792   -2.36732351579271   -0.15079437302249
