    26
        -50.45846917  Gyration_radius:  2.52015269068 Dipole_moment: 6.112
 S          -1.28945315230012   -0.61691748940611   -1.05618156429637
O          -1.21711366665886   -0.65397030809638    0.42972079232905
O          -0.19133270368451   -1.33072651952728   -1.64608137336304
O          -1.37878825497013    0.76997827623393   -1.48618723923278
O          -2.61082561621732   -1.34123381398471   -1.44875156805428
H          -3.27847507813628   -0.90436095499485   -0.88677325671570
H          -0.16626204480899    1.73008208654537   -1.33531118512504
O           2.83482160914169   -0.53960507905622    0.68470807648715
H           3.77146621722675   -0.37286341947643    0.79454762267880
O           0.62713643636598    2.30421582067038   -1.11916480689027
H           0.42505524198053    3.17041333554295   -1.47592570778924
O          -3.79951059219443   -0.24383243913255    0.65807961207371
H          -2.83434857426138   -0.29393354993544    0.80897536009265
H          -4.20157845956744   -0.89423000168911    1.23841491497486
O           0.64419267374824   -1.74805903504124    2.24267886028980
H           1.43707017164881   -1.84907338200403    1.70745918575721
H          -0.08946975074121   -1.66799686945760    1.62022636351113
O           2.11852485078903   -0.03785915710060   -1.76322152900083
H           2.64246648206885   -0.45294153629122   -0.29288694895789
H           1.32401958565916   -0.60643035147641   -1.85229795296596
H           1.78167811373082    0.86816864340398   -1.75580129919138
N           0.69536783151874    0.96667300654041    1.20658966915226
H          -0.10873240712138    0.31334545566825    0.95391997379009
H           0.54821469424037    1.35384434812897    2.13283203742811
H           1.57419846503738    0.38442818043459    1.17923467953861
H           0.74167791749832    1.69288475347577    0.46119728347602
