    26
        -50.45879359  Gyration_radius:  2.49506396958 Dipole_moment: 6.348
 S           0.33889236110599    1.43368264408439   -0.69316178406042
O           0.98440204076373    1.08771524686719    0.59758255483245
O          -1.08901512907223    1.27941462372055   -0.60248887292275
O           0.93552311028252    0.64779576134449   -1.75950778638463
O           0.64815796442922    2.93813883600443   -0.95280952909308
H           1.61439098991411    2.99988388834100   -0.82083368290140
H           0.76996039014323   -0.89996132254450   -1.72194243591750
O          -2.33335493268973   -1.73999287823358    0.99153981270521
H          -2.82020118757357   -2.56111620025097    1.06535394130721
O           0.64231380327440   -1.88635312463730   -1.59973415475677
H           1.27900763028291   -2.30299154508526   -2.18246323229830
O           3.07675080105386    2.58262785886882    0.05038966761068
H           3.26647232048347    3.17205257882685    0.78399979912680
H           2.48297541935485    1.88768050947868    0.39742424657888
O          -1.15998742947664    0.69500228096197    2.35875597134269
H          -1.96113414171001    0.57667464427605    1.84249719599357
H          -0.53505344180367    1.13007337157928    1.76669331246114
O          -2.10180706554064   -1.00619379615352   -1.50789078288364
H          -2.39344464608907   -1.45354098381399    0.03997556874734
H          -1.84431822775068   -0.08310048211680   -1.30523669795653
H          -1.29228635245269   -1.43617593817594   -1.81069730307844
N           0.30937265449670   -1.43175775557607    1.02702687160885
H           0.57293639720861   -0.40640542992894    0.97582889517832
H          -0.73393037556244   -1.50183939436961    1.19520417516730
H           0.52099744192500   -1.83587140172423    0.08873605171986
H           0.82237961500227   -1.88544201173785    1.77575819786730
