    26
        -50.47008306  Gyration_radius:  2.50847450388 Dipole_moment: 5.873
 S          -0.48856443645425    1.08663261348667    0.24812619076406
O          -1.74027514760588    0.38827601019860    0.41216272984351
O           0.01761911443415    0.90248852534512   -1.13000382082618
O           0.52809875168868    0.64263557733596    1.20278991541746
O          -0.72379631813968    2.59695471687973    0.45459574389666
H           0.18371959092435    2.95418497904911    0.68680232255864
H           0.90391264348485   -0.89888415625557    1.11640552329789
O          -2.68463376213008   -1.96785779980709   -0.66163749888633
H          -2.83062972641317   -1.01779087344457   -0.53945575006116
O           1.09626389867215   -1.86522030322639    0.96894602384901
H           2.00067906114394   -2.00199300592122    1.25513297473457
O           2.26046675303042    2.24734782684894   -1.51088318945807
H           1.44581819317336    1.70362716876150   -1.43095019437056
H           2.08958028945391    2.88149762777579   -2.20934749296169
O           1.74293730867238    3.02680859182085    1.01342036158770
H           1.67117714867387    2.14336728252296    1.40603063792886
H           2.15173517352941    2.88310121467101    0.13433523871537
O          -1.65233165817014   -1.96933092153763    1.79888747649162
H          -2.51614650874791   -2.27720710241319    0.25550152587309
H          -0.71146699967770   -2.17854892281584    1.79713156140142
H          -1.70759144379280   -1.02359238370626    1.57630039954845
N          -0.19474182419819   -1.67420395792134   -1.39403319002657
H           0.11916860247985   -2.09711820847138   -2.26092538071870
H          -0.10729414372406   -0.61217500794876   -1.41947349450754
H          -1.23199034534863   -1.89028388789382   -1.18776398187709
H           0.37828581502068   -1.98271560349772   -0.58209463222024
