    26
        -50.46245837  Gyration_radius:  2.5305551747 Dipole_moment: 4.458
 S          -0.81361296085608   -0.23378457041657   -2.08066498146086
O          -0.15970722290543    0.96070352722169   -1.52614326549627
O          -1.11496731196997   -1.18749020152055   -1.03832521279745
O          -0.06328571013108   -0.78744609293547   -3.18600759954802
O          -2.20133801323364    0.26268968796229   -2.66308532110135
H          -1.97153737472029    0.70108922037973   -3.47733949777113
H           0.96182433813450   -1.83145368638552   -2.37560338115549
O           1.37221420610420   -2.34482839890689   -1.64124712003948
H           0.63518253284257   -2.84341510179339   -1.27533195092990
O           0.31010322309047   -0.76873948150437    2.35508038352311
H           0.25583102060532   -1.64468648844462    2.73772142992039
O           1.25759014891944    1.82941494210479    2.23290010718537
H           1.18836890001984    2.39761368816321    3.00136734320265
H           0.94317002108981    0.95324947762617    2.50596825104766
O          -1.05323220863940    2.26196971611395    0.66480938912862
H          -0.21623994516734    2.29374330294874    1.15545147697228
H          -0.81235553963126    1.96404972367597   -0.22921527380324
O          -1.93280182644813   -0.18739246782245    1.29963418798404
H          -0.62890602611417   -0.55596464036663    2.01016668185163
H          -1.82435686281800    0.77733273514510    1.13822073933654
H          -1.80091004858527   -0.60818776734301    0.42604519574423
N           1.55804278886512   -0.27919503730293    0.00681334903619
H           1.11275480784534   -0.51660226342064    0.92742799498718
H           1.65641389177745   -1.15291952336387   -0.58470080986296
H           0.89976406106529    0.34381510964772   -0.54468948191974
H           2.44199110084959    0.19643458052362    0.16074737598195
