    26
        -50.46955699  Gyration_radius:  2.46888836853 Dipole_moment: 4.584
 S          -1.06897025073292    1.53938920208915    0.31625162631102
O          -1.27305187969354    0.20384752203915   -0.24317072356604
O          -0.51617653152468    2.44656948443503   -0.66911293939945
O          -0.22253380729720    1.45385147722038    1.51075946378739
O          -2.45942905545755    2.08639766294369    0.75248425682877
H          -2.73458386259798    1.45595435929881    1.44628102290387
H           1.22370475298923    0.87381972062404    1.19116169884671
O           2.08448734343060    0.45896275739979    0.91379909359393
H           2.75447999528661    0.83363978241529    1.48793447061964
O           0.66616506641404   -3.03939649783187   -1.09830101224379
H           0.11801200558631   -3.82297960686964   -1.15447138183894
O          -0.12275964948043   -0.86092409867521   -2.43334377187624
H          -0.77235546725556   -0.54205246026691   -1.77784780192634
H           0.20253886474396   -1.71985908154176   -2.07664187369496
O          -2.28389004050398    0.13647106997975    2.56255273517834
H          -2.18944213329765   -0.76098036748389    2.23056354021090
H          -1.39773053871572    0.53304370069448    2.50595456834390
O           0.05894727337865   -1.64330175670474    1.09695738123582
H           0.47610074907122   -2.63070751809525   -0.22063447046800
H           0.88690895011985   -1.18655521418539    1.28465717616549
H          -0.49583797725245   -0.98075363696232    0.63013429386317
N           1.44857457641921    1.04084600308887   -1.66789629699994
H           0.69441518757243    1.72719437514664   -1.37086746709739
H           0.90470630408937    0.20393060632522   -2.10081755447051
H           2.09969610274379    1.45895857888031   -2.32322827829023
H           1.91802404205274    0.73463390602595   -0.79315775602584
