    26
        -50.46245823  Gyration_radius:  2.53053643295 Dipole_moment: 4.455
 S           1.26764973439345    1.74079858548088    0.63872369514143
O           0.65877400391064    1.54141898163500   -0.68465073747801
O           1.17295377514908    0.53992196628158    1.43612380596929
O           0.74960901067048    2.92285740997647    1.29123984025825
O           2.80923474625405    1.99457739210729    0.37304798804360
H           2.84891490841055    2.89206007210811    0.05527944078954
H          -0.57201980210916    2.28371244030688    2.09233347072482
O          -1.21570128445719    1.62379552461485    2.44085743177676
H          -0.66463358189026    1.01312250819102    2.93995424483648
O          -0.98441446795709   -2.26780748108783    0.34848224217022
H          -1.14234897516857   -2.76229772328405    1.15295679976733
O          -1.52242078389634   -1.55892207512783   -2.27281762748863
H          -1.40363817876082   -2.01820133451067   -1.42663138504274
H          -1.57247917473121   -2.23673393869314   -2.94827083758319
O           1.14193696128623   -0.61830898808816   -2.23188407958038
H           1.09426616935239    0.26058436944874   -1.81793007131661
H           0.22074460495014   -0.86035301473424   -2.41935632334871
O           1.50682466447810   -1.77960625064131    0.15425286254609
H           1.54256012999468   -0.96528210947676    0.69577567316250
H           0.03045386042386   -2.15992341702184    0.28174362814500
H           1.56942463981917   -1.47014163006191   -0.77786561893418
N          -1.53346859034780    0.37065440452766    0.12880319133402
H          -0.68301400930015    0.80437188637372   -0.33400207479560
H          -1.36630693792578   -0.65805471972741    0.25538688944327
H          -1.59508621033216    0.84703889193674    1.07341827429445
H          -2.35781521226020    0.52071823941747   -0.44497070284626
