    26
        -50.47201774  Gyration_radius:  2.51754929465 Dipole_moment: 1.431
 S          -1.88319082984106    0.45649977262583    0.49340895856186
O          -1.22243923090428    0.26659387673965   -0.79817540788839
O          -1.06995169700618    1.24260499617400    1.39684253382603
O          -2.34539456295433   -0.79920335823766    1.04431861276735
O          -3.17698985458028    1.32076338122867    0.20554828794471
H          -3.75410507045228    0.68263472425986   -0.19999374695125
H          -1.10800175535792   -1.83515613654584    1.15585912092501
O           0.41507161303713    3.22121715518476    0.33584498834242
H          -0.19599217066914    2.57153052241520    0.73799672115037
O          -0.29324949648450   -2.39448242656391    1.20991398804775
H          -0.52297617835717   -3.14737398290675    1.75717290573320
O           0.05128076069168   -2.03483105428079   -1.52816422701887
H           0.09359255093110   -2.40734233041387   -0.63458340258879
H          -0.52958063545403   -1.26030509397829   -1.43516765538534
O           2.31585102784243   -0.88995969669584   -2.33205084267291
H           2.29704558533248   -0.84204728321033   -3.28838074936469
H           1.53970778322370   -1.44482901119199   -2.07083467949436
O           1.17173792864073   -0.18631267420304    1.89886561049304
H           0.37651083599602    0.36574810783577    2.00329608058812
H           0.83746183290565   -1.08892364960426    1.75528227929582
H           0.37032845428031    4.00303161124707    0.88707349115307
N           1.35725921566953    0.85177744249699   -0.53547791405478
H           1.92714915329501    0.37059667618215   -1.26224857212804
H           1.52112758223497    0.42633874125586    0.41725530260617
H           1.48705650952057    1.86605293453726   -0.47479046122141
H           0.34069062834333    0.68537674564448   -0.73881121274390
