    26
        -50.46116814  Gyration_radius:  2.61906755868 Dipole_moment: 2.755
 S          -2.16586087009776   -0.13928426912710    0.96664944543767
O          -2.26715476283285   -1.55315611581842    0.71530461871655
O          -2.52865397982395    0.70285897838176   -0.16659229565364
O          -0.84259749178212    0.22346170738814    1.48284330681842
O          -3.21070500420482    0.22534337087691    2.10421189555847
H          -3.50726029938950    1.08926148276057    1.83529822714470
H           0.12774851648153   -1.08031143507186    1.51727889608540
O           1.19545972108439    1.51781286511587    0.28072758450746
H           0.48797163349928    1.26792233063962    0.90370618192622
O           0.74718937993689   -1.85185898584028    1.46432493392704
H           0.43524159465764   -2.47505652950339    2.12204648245147
O          -0.37098680573054   -2.24222564978626   -1.01212887519780
H           0.27675599976494   -2.32101636704080   -0.29186801263313
H          -1.21924198073399   -2.16993976805984   -0.52716362676882
O           1.16903683041810    2.55827654835650   -2.38774662435618
H           1.49508070602902    3.41961070787538   -2.64971573984438
H           1.31535515848213    2.48684911576342   -1.43420803798321
O           2.98523521037777   -0.41727435731799    0.88090742242339
H           2.28028339680572   -1.00439115987903    1.21204475814780
H           3.43784565007115   -0.89819498947112    0.18644679602414
H           1.95891860476267    0.95506305918084    0.52539133876027
N          -0.35564555906902    0.33723926319926   -1.57689346486339
H           0.35651748400859    0.76661893064472   -0.93222448174097
H          -1.29762716765811    0.57655120076795   -1.16414647173985
H          -0.22785757384202    0.74323218502705   -2.50116408676872
H          -0.27504840104223   -0.71739213895336   -1.55333017016326
