    26
        -50.46651514  Gyration_radius:  2.52829325837 Dipole_moment: 2.412
 S           0.66796836651604   -2.14397534671324   -0.12552769218118
O           0.83643200239175   -1.08786567451532   -1.13580567121074
O          -0.68008253031698   -2.64781957780783   -0.12455600721306
O           1.15132419002722   -1.71025913322789    1.17193869652001
O           1.63399861124481   -3.32025470293005   -0.55874816085460
H           2.42538538285886   -3.09605270942209   -0.07938239801729
H           0.24761124581904   -0.57828796176832    1.82780160702565
O          -0.36106600439463    0.11301062751936    2.20227968021934
H          -0.24395496978404    0.07494926514000    3.15318402474743
O          -0.86522640763216    2.78102413829714   -1.03760884319906
H          -1.52678585783513    3.35527688366133   -0.64956188828447
O           2.62756067950635    0.75321267067274   -0.47839747988299
H           2.87192242698829    1.13621676863360   -1.32283319762121
H           2.00712505306695    0.02152717871540   -0.67951799741198
O          -2.43522861645336   -0.84442544557487    0.71050970571336
H          -1.88221795439879   -0.42332850245251    1.39372207452155
H          -1.96941005667997   -1.68051554525275    0.50020700556577
O           0.80622900426284    2.23845134939000    0.87413635294178
H           1.57433189199799    1.78421208483616    0.47238060712769
H          -0.17112553221956    2.64872007631914   -0.32604050773246
H           0.36551675000421    1.55925892123151    1.41384704415112
N          -1.42871996512910    0.22236294952238   -1.46173544998792
H          -1.91248211249888    0.01433396380918   -2.32822428334310
H          -0.50924792987204   -0.29505274969271   -1.42919826909633
H          -1.24701890507743    1.25994816410912   -1.36354003554602
H          -1.98283879238968   -0.13466768247440   -0.61932889693612
