    26
        -50.45901473  Gyration_radius:  2.68838727955 Dipole_moment: 4.411
 S          -1.45718360157687    1.95171960416747   -0.95803393351470
O          -0.39287890343986    1.85394885739395   -1.93095272373632
O          -0.97397876789610    1.83581527953815    0.41468849161348
O          -2.56113528905421    1.04070251332879   -1.21660771113388
O          -2.05514649737515    3.41778869128166   -1.09225401440171
H          -2.81788456993918    3.39177014596293   -0.52242466529964
H          -1.79079145450970   -0.30553418042484   -1.28900859814283
O           0.74589789259700   -1.51685480298150    2.79933618035600
H           0.36125269163539   -2.12169537394739    3.43501009623181
O          -1.27256904121818   -1.16146165925801   -1.30544280881764
H          -1.58138949620582   -1.62978927391103   -2.08320427317783
O           2.39046865090025   -2.31852498183474    0.92385373820147
H           1.76462528626064   -2.09098530233289    1.66097737998731
H           3.25775842566659   -2.05049644570876    1.23250053074021
O           1.58085395539813    1.78155285839961   -0.27076189542404
H           1.04778816553876    2.03099075219429   -1.05857687288990
H           0.92057122461723    1.88194267706128    0.43493934621812
O          -1.33159967923379   -0.57413100003059    1.47937628511042
H          -0.02110144098260   -1.09553891824919    2.33385209036456
H          -1.25234166477065    0.36114424455282    1.19886607989520
H          -1.49461064438769   -1.06438667960346    0.66571732747060
N           1.39235880304858   -0.73711513698945   -0.97746791713487
H           1.52978352733496    0.27314080999528   -0.63183920009742
H           1.85890990046669   -0.84450453404038   -1.87231071899530
H           1.78626086842887   -1.41182780361234   -0.26689003539752
H           0.36608163869415   -0.89767033095259   -1.10334219802284
