    26
        -50.46116535  Gyration_radius:  2.61922262177 Dipole_moment: 2.700
 S          -2.33511626561596    0.30132245865793    0.30575737999160
O          -2.66648284749100   -0.74194679541492   -0.62983617252064
O          -2.06611157607840    1.59648392168872   -0.30716110834961
O          -1.23635827129948   -0.09777658018227    1.18960281341941
O          -3.59988026025233    0.54108095489946    1.23448223089122
H          -3.60158604466391    1.48871849277237    1.32709843658046
H          -0.67219385253033   -1.56339538242108    0.76887079818958
O           1.33731815101049    0.70853531456323    1.23675612613911
H           0.41738554683403    0.51347814977697    1.49485875472653
O          -0.27169349413059   -2.41779506524664    0.46658647992848
H          -0.93315386962606   -3.08728532150086    0.64717891651875
O          -0.49621281605879   -1.32916584441188   -2.04303596019706
H          -1.41955777084774   -1.14766785956762   -1.76991896156908
H          -0.18369959814062   -1.92680916381452   -1.34318817027992
O           2.50009526003086    2.66694089489682   -0.49947355114084
H           3.07697654268165    3.37912714241642   -0.22208585139139
H           2.27797714899188    2.16642635382854    0.29791252641575
O           2.29427363025561   -1.81781532580000    1.14744012917153
H           1.81029715480975   -0.14526074230105    1.31945134452499
H           1.40225934432462   -2.17939880153768    0.98994217414100
H           2.84032677140959   -2.10817263989756    0.41533479102109
N           0.31920167366000    1.04768783519324   -1.23284283176659
H           0.85867156792302    1.71162960073922   -1.78386388425522
H           0.13817462314013    0.12668088232556   -1.72123303821723
H           0.83365074694991    0.88107454317426   -0.33019565716252
H          -0.62456149528678    1.43330295720643   -0.95843773478499
