    26
        -50.46147050  Gyration_radius:  2.59137349104 Dipole_moment: 4.213
 S          -0.61780048593359    0.14884388315188   -0.39178871932908
O          -1.44279307078943   -0.82200484026772   -1.06932268380171
O          -0.15141561863131   -0.28454788735624    0.91800113900163
O           0.67200648652247    0.40966099820522   -1.25339470953083
O          -1.24174356451655    1.47935885554847   -0.28805837671985
O           1.27420213000721   -3.55211317321111   -1.28582750891274
H           1.15398281345714   -4.46708885968339   -1.54417333742247
O          -1.73956841909287    2.22242340397710    2.25976702335529
H          -1.69422781659522    1.96967367634770    1.31593275140355
H          -2.37593373175464    1.62877461604512    2.66097676099973
O           0.87367961209359    1.61438991057947    2.41072615929159
H           0.63569368416882    0.75738855628128    1.98453129855941
H           1.07602114922389    2.37448866582273    1.14229097975661
H           0.00211368721656    1.96171210503073    2.69107647893733
O           0.43755925285664   -1.55005921498772   -2.84843907159431
H           0.70526274891363   -0.33054731851459   -1.94404653268206
H           0.86247273695122   -2.30693908304741   -2.38103131696300
H          -0.48788918034863   -1.55045993600974   -2.55962126943375
O          -0.64388799880776   -2.88861616212983    0.44110084088064
H          -0.28260562661195   -2.18023818482082    0.99384299211461
H          -1.20642800624666   -2.39404303747046   -0.17765362875987
H           0.62067891339673   -3.38115970737156   -0.56527381491566
N           0.95644945801105    2.74443185923281    0.11152518514346
H          -0.01706070320119    2.36593877688779   -0.15149479405168
H           1.61535795222332    2.27578074271690   -0.50842547013536
H           1.01587359750464    3.75495139506204    0.03877962479248
