    26
        -50.46947629  Gyration_radius:  2.50966455706 Dipole_moment: 3.421
 S          -1.71951985097133   -0.85034403137070    1.00523546405833
O          -2.18134972943702    0.35535940157972    0.32409383964764
O          -0.44634149070455   -0.65576195862376    1.67791545492213
O          -1.72893032929276   -2.00293710552645    0.13084531292614
O          -2.76780083604830   -1.14194650349926    2.15433936450715
H          -3.51713045375155   -1.47247816841171    1.67003835275310
H          -0.67875127446497   -2.06740364786268   -1.21099066660563
O           3.08296811792552    0.80138088138973   -0.16033794990372
H           3.60601574750056    0.92569246884405   -0.95342120572179
O           0.05576655452555   -1.81900356525333   -1.81315170446416
H          -0.17018604023097   -0.91690120401818   -2.10002172730499
O          -0.61530787556325    2.08043650672749    1.66481186979775
H          -1.34576759246139    1.65589404001560    1.18325816357059
H          -0.22632961534190    1.35369541165489    2.16377108580528
O          -0.84092156624028    0.76272522361985   -1.87375760182914
H          -1.42244653173495    1.19797910644053   -2.49957038600414
H          -1.38120798012997    0.61254267162426   -1.05787824360325
O           1.00227249165712    2.32405739328897   -0.48183479556459
H           0.48824941276640    2.40458331899280    0.35060207949118
H           2.33296903019643    1.46162450684755   -0.22372340466424
H           0.42138005075094    1.83487723006483   -1.08719428207052
N           1.63357820321493   -1.38115026735566    0.23206197705127
H           2.27692476069674   -0.55247028872058    0.08874774512996
H           0.86484022780041   -1.10726068093397    0.89991898450813
H           1.13352664210138   -1.62515150518563   -0.68059664287445
H           2.14349992723656   -2.17803923431876    0.59683890643440
