    26
        -50.45821260  Gyration_radius:  2.48032125601 Dipole_moment: 9.151
 S          -2.13222516477835   -0.54403295926297   -0.35974383930072
O          -1.45796919986610   -1.26836336771651   -1.39128916699580
O          -2.36835280492122    0.86781018593854   -0.69282555113290
O          -1.47974043493461   -0.63367740787038    0.94847969259165
O          -3.56946502954089   -1.17675586664581   -0.17724197962320
H          -3.97635842855249   -0.57456527352965    0.43641394366647
H          -0.64887357937177    0.54649758277045    1.63690007980191
O           1.97547608774955    0.59690492268558   -1.27564123624154
H           2.82657341791005    0.86335266995627   -1.62496883674782
O          -0.12815515856516    1.31992129167231    1.98750085852926
H          -0.45424983023032    1.48023208618782    2.87370278531969
O           0.79970530538341   -2.19964677917806    0.98079616955866
H          -0.08217106215229   -1.79422491217999    1.00507322015976
H           0.96731484387481   -2.39847332513021    0.03582193858797
O           1.08934728897510   -2.11582585466179   -1.71352682547742
H           1.47564762779247   -1.23230212414659   -1.77009932407431
H           0.13071429632743   -1.97159702885407   -1.77290957461415
O           2.21595594977707   -0.01155851029967    1.20532543911223
H           2.13871589885021    0.32036732116017   -0.31231357244567
H           1.56184242122080    0.53188438845567    1.66695332517587
H           1.81733165201188   -0.92533346286830    1.20915659499463
N          -0.12666154708488    2.08782333039524   -0.59457228204680
H           0.66352116886106    1.53007437301820   -1.01093400133942
H          -0.15323545048015    3.02901888546340   -0.97208334409048
H          -1.07552368540823    1.58155008074871   -0.75365820082657
H          -0.00916456284614    2.09091975389081    0.43568369746027
