    26
        -50.45901495  Gyration_radius:  2.68837195087 Dipole_moment: 4.415
 S          -2.20409994850073    0.78155840112568    1.17810511637306
O          -1.56244983321403   -0.51986121353926    1.33862466044896
O          -2.45870927098926    1.10756129594651   -0.20681634191447
O          -1.48694877123589    1.82498792112210    1.89421689641562
O          -3.62466819877652    0.66171033802182    1.87981567477628
H          -3.40177404799419    0.56210530878401    2.80045431373052
H          -0.25169179830949    1.99116869157797    0.96854238066434
O           0.54590675075069    2.05961835131506    0.36791967780672
H           0.67640859368997    2.99899925054227    0.22603209847138
O           2.48036299183479   -2.10170995349719    0.32543230805213
H           3.27210313550446   -2.23151323908317    0.84895361594396
O          -1.70924683772912   -1.13883364700818   -1.23061035065240
H          -2.25288779621865   -0.33614847810651   -1.06503407973163
H          -1.54843184586661   -1.44093617491069   -0.32135917768786
O           2.55486792405558   -1.05601026455230   -2.07588184609954
H           2.60706156049548   -1.44658473697983   -1.16401321982045
H           2.44968110466318   -1.80227894220057   -2.66857355874184
O           1.06293891232319   -0.38321379646790    1.73411409190362
H           1.89706928965848   -1.51066951362505    0.86663136106480
H           1.20217859330917    0.52497598470189    1.44294762431237
H           0.09326429627264   -0.51603596388099    1.69155750937302
N           0.34170319072823    0.40194680148766   -1.77650920820395
H           0.10855003008482    0.94879628116048   -2.59902574488693
H           1.24635366741104   -0.12333050648191   -1.92060544026612
H           0.41774801733961    1.03950265612507   -0.95024803785608
H          -0.45528970932258   -0.29580483148371   -1.58467033344885
