    26
        -50.46970027  Gyration_radius:  2.58919165086 Dipole_moment: 2.417
 S           0.17640854897830   -1.28917575541623   -1.01921435516330
O          -1.25575563759686   -1.13264154409294   -1.14298890216360
O           0.58526818117032   -1.32076264847494    0.38343957314935
O           0.90227408356501   -0.25170568625143   -1.76073337361019
O           0.59475709477668   -2.66805196885524   -1.61707397558167
H           0.50772452582763   -2.53115113978685   -2.58051697076678
H           0.57904622507899    1.16952487141561   -1.08033436661089
O           0.35975626346895    2.01705272330682   -0.61469855934273
H           0.59147879749155    2.72020615479317   -1.22405271802786
O           0.23696937813268    1.06325467816403    3.56452659580539
H           0.08556563931239    2.00016719122454    3.69737525668230
O           0.63829745462195   -1.55898447487244   -4.01904970440932
H           1.48031399048427   -1.61496536777810   -4.47666873034688
H           0.73078837549739   -0.85128285667334   -3.34955622848415
O          -2.15288483912047    1.06449465508078   -0.01201063906655
H          -2.01555300913411    0.28154393780310   -0.59089774113680
H          -1.38075112343944    1.62903135169537   -0.18995785839217
O           1.80689735668726    0.85806622548953    1.46466128035891
H           1.59446235339730   -0.02477666248951    1.11329381362492
H           1.42575359165655    1.47011300902457    0.81572292285359
H           0.96088544227489    0.99275820901298    2.88637030387951
N          -1.30939552865890   -0.41458809977915    1.97609351411742
H          -1.96179964898382   -1.08297793772033    2.36973351216283
H          -0.81489248335103    0.13906339378531    2.72238335528953
H          -0.57449248732009   -0.90955292959285    1.39908234109751
H          -1.79112251481398    0.24534067098232    1.28507166407744
