    26
        -50.46680120  Gyration_radius:  2.60695364515 Dipole_moment: 4.782
 S          -1.54890151108110    0.39068839975635   -0.27905502933802
O          -0.98022229133881    0.00146434214538    0.99573060660080
O          -1.40757202373318   -0.69449144043429   -1.27217551038228
O          -0.96921417962656    1.61710487920031   -0.79237177538106
O          -3.07553845206936    0.60809075335035   -0.05607111037180
H          -3.44074635505883    0.65921562845259   -0.96196097574502
H           0.59601564335536    1.57910850774670   -0.93938548899571
O           1.58486444317774    1.44985673542436   -0.99603025075946
H           1.89611042302933    2.08511026658303   -1.64270781394598
O           0.80902808459841   -1.96669532203665    1.47144140842742
H           0.02066589985066   -1.39320243227668    1.51190236405131
O           2.49454459317125   -0.43213331670622    2.83501584570516
H           2.04945780321849    0.38614913566842    2.49949055687470
H           2.41130324738603   -0.40554809088220    3.78908722709094
O          -3.49745349239979    0.14541455392021   -2.62869127344664
H          -2.64097337201355   -0.25326385894068   -2.37498746032958
H          -4.10059008858703   -0.58288971824441   -2.79391237541418
O           1.08093622868141    1.55621601402475    1.80847908928534
H           1.45340674119562    1.76360655708418    0.94227098116047
H           0.23856682412595    1.10193721938907    1.61826472384717
H           1.48802349714724   -1.51916654745071    2.03217899832638
N           1.13727739838537   -1.23023773779172   -0.97671368863342
H           1.60032902840996   -1.85751982921523   -1.62513114345788
H           1.55330859111215   -0.27874357065241   -0.99895961371967
H           0.11020014202317   -1.11171797116983   -1.20965478901690
H           1.13717318715855   -1.61835316688939    0.04394646732274
