    26
        -50.46802976  Gyration_radius:  2.56389509636 Dipole_moment: 2.903
 S          -1.87553284493883   -0.90963647207394   -0.03208808741527
O          -1.55724961098376    0.44209429818001   -0.49999689448580
O          -2.19487451504689   -0.94569072613541    1.37172361728325
O          -0.84625428447515   -1.85241812367150   -0.43923651980823
O          -3.19143769595529   -1.34371563317729   -0.80536410176278
H          -3.88642521994877   -1.06794794780736   -0.21620028131710
H           0.52726277384278   -1.79417563418832    0.40402171664464
O           1.00002692589984    2.31879619097305    2.22734321628206
H           1.60035500560799    2.54603734096388    2.93797104854205
O           1.38775624847070   -1.59222424929312    0.85216609656577
H           1.98058802646476   -2.31199373273343    0.63046813520089
O          -0.54654053364316   -0.47101866217801   -2.78208933265168
H          -1.07360573432524    0.04379608531651   -2.14511456126304
H          -0.47886484014785   -1.33123169282340   -2.34864335713855
O           1.66856968531586    1.00909037677040   -2.68465658028527
H           0.90982206471931    0.39402372537144   -2.83913995212041
H           1.56817404345731    1.71595541409443   -3.32332291749092
O          -0.07134822348811   -0.06473206337820    2.76270414878483
H          -0.93385283201615   -0.31807285896703    2.38129965635004
H           0.55402601406556   -0.71039593764767    2.41165953214419
H           0.49946924978875    1.52539379234716    2.53237131152676
N           1.01326066375252    0.96130946250244   -0.08156630631120
H           1.42672840145420    1.17278660522282   -1.01454929386845
H           1.37106205726846    0.05094441032376    0.26025095346382
H           1.17485531566568    1.68306867886198    0.64734294211803
H          -0.02597013082736    0.84995735312679   -0.20735417899154
