    26
        -50.46794280  Gyration_radius:  2.46421007619 Dipole_moment: 2.587
 S          -1.61836721407279    0.22000218612393    0.85587868780490
O          -0.59261478710457   -0.02314356561265    1.86148682802535
O          -1.42153376963300   -0.62663227776897   -0.31103074941941
O          -1.75823813354942    1.62365876307698    0.54324305770886
O          -2.99805925366756   -0.24125644858984    1.48079852560963
H          -3.24008423438104    0.50241484462895    2.02304247351873
H          -1.14906128359381    1.75653902870233   -1.05624773332585
O          -0.73421143520359    1.61162514042529   -1.92834245451491
H          -1.09187135957585    0.77436762995111   -2.23292554092254
O           1.84624203059362   -1.13644729319118    2.03771184638510
H           0.91888249496943   -0.86274156610003    2.17202607025705
O          -0.60338106809111   -2.81147330580247   -1.86138964412275
H          -1.11023297783469   -2.14736068287186   -1.37249319684631
H          -1.22519829482513   -3.49374154077600   -2.11676078396888
O           1.85511630319225    1.32446820605659   -1.26231711461827
H           1.76618097620653    1.69705586302036   -0.36156805063073
H           1.01009245279509    1.56078709204140   -1.70103225245388
O           0.99086663134898    2.02471071811896    1.20828183684938
H           2.37492354715183   -0.37166830602930    2.27887145535682
H           0.37025439618333    2.73197109324407    1.01446526353691
H           0.42874694896165    1.29127023462816    1.52309284334689
N           1.21905629718860   -1.10129952403111   -0.56929812131717
H           1.63660186686004   -1.29190071642511    0.37020031086539
H           1.31084262398733   -1.88879453010067   -1.20827236311679
H           0.19687688432929   -0.93866511258683   -0.42608444911742
H           1.61817035778808   -0.18374594010723   -0.96133673487641
