    26
        -50.45935396  Gyration_radius:  2.53849938457 Dipole_moment: 3.963
 S           0.85885865538739   -1.76539963781481    0.35577359476911
O           0.29534047166229   -0.89589485123999    1.35712457266561
O           1.98827386934659   -1.11052408300747   -0.31825149271595
O          -0.10635006930278   -2.29049991299238   -0.59107345188423
O           1.45569362981265   -3.03991421299519    1.09376146384985
H           1.11875753492475   -3.76684913842506    0.57837472915452
H          -0.74960910974024   -0.85717551519542   -1.14435396220350
O          -0.83618316089487    0.03269101121000   -1.55827327150789
H          -0.23867869947826   -0.03527861838525   -2.32924848289283
O           0.34538859402440    2.09569366680715    2.26565430646143
H           0.88058838809332    1.59093146536812    2.88185412294288
O          -3.04489795105826    1.00013652291160   -0.20229675917865
H          -2.38031442776842    0.60091325702677   -0.78447501294228
H          -3.33283430182394    1.81288012045597   -0.61967284175047
O           1.41120251700223   -0.58850193696119   -2.88447738536383
H           1.36940024629079   -1.41023010598157   -3.37594523564071
H           1.73320628083968   -0.83069424660230   -1.99053689014728
O          -1.78353074415902    0.61033399069664    2.23034688534484
H          -2.35920537447474    0.74574853815053    1.45881791079922
H          -1.19111868618416   -0.12332226101611    1.99310284590078
H          -0.55554960856801    1.65868728242648    2.31027587519129
N           1.03690826419385    1.34199365371105   -0.14905070770187
H           1.60959435339078    0.46360029135080   -0.08643810219929
H           0.77956618687195    1.67741176372653    0.84042589386288
H           1.52440440656650    2.05868553380420   -0.67780198440676
H           0.17108872518871    1.02457745285845   -0.65361661041090
