    26
        -50.45935313  Gyration_radius:  2.5384730638 Dipole_moment: 3.983
 S          -1.99301061334503   -0.01120632930525   -0.08515978391838
O          -1.71710154851460   -0.37252499611961   -1.48254007699710
O          -1.18189121904507    1.10992924430988    0.31631038313569
O          -1.90609203817775   -1.15892113958682    0.79736908808464
O          -3.51490475496961    0.44275092022200   -0.03198003965682
H          -3.94188164973989   -0.27989643408153    0.41860728313159
H          -0.25767983601925   -1.39710435733414    0.76639000176899
O           1.31311113915838    2.74589796323407   -0.61729051872931
H           0.53007730028146    3.26804613340440   -0.80473231785428
O           0.65637051003116   -1.57941387853950    0.44707427499806
H           0.50924881373734   -2.27334241854607   -0.22595393199258
O          -0.52762609661062   -2.77008747880623   -1.64430463084133
H          -1.04347386565770   -1.93673452804043   -1.67696880733174
H          -1.15601346690162   -3.45445275593155   -1.40927620295232
O           2.13338317820018   -0.27085458915724    2.38628701084041
H           3.05756461969229   -0.49804720367454    2.27723684181711
H           1.62516530816340   -0.85949170349742    1.80736605046846
O           0.82041424017358    2.10601762762880    1.84988920165426
H          -0.02644118208349    1.75642816174164    1.52414164125182
H           1.31651373101527    1.33634149144523    2.17617950425848
H           1.26545859487480    2.58066423741039    0.37018526556060
N           0.82940242021018    0.30820116367997   -1.45430797200678
H           1.38513809070352    0.03341923567083   -2.25835663381984
H           0.98014652298280   -0.35034396317279   -0.64892006930739
H           1.04135063794193    1.31666283895605   -1.14461753868008
H          -0.19722885610981    0.20806273805723   -1.65262801286785
