    26
        -50.47217139  Gyration_radius:  2.47551740741 Dipole_moment: 1.730
 S          -1.01430510796492   -0.07692235642249   -0.66853759538658
O          -0.88374287896079    0.95192504410279    0.34626766943349
O          -1.36191412062409   -1.37426318963375   -0.10571616576243
O           0.20588330277859   -0.17042169671648   -1.47595786152582
O          -2.16326176975700    0.37431646110001   -1.61897442210768
H          -2.37751741801564   -0.44227895285184   -2.11840581938529
H           0.57224299158044    1.79286176633614    0.80036494356212
O           1.52165643932360    2.01737104587316    0.87064066773555
H           1.72556762113240    2.36674010507730   -0.01636192113998
O           0.35410719674496   -1.81496127104284    1.91123110913822
H          -0.34429022545888   -1.85073951991377    1.22776081580306
O          -2.50294721344300   -2.13002272945849   -2.33224509193694
H          -2.02632343676413   -2.14592415162003   -1.47696885450284
H          -3.36245563771097   -2.52752825084577   -2.17393200584528
O           1.37809866982929    2.21768790922696   -1.82581592400698
H           0.76966804539405    2.80432333284078   -2.27699700255776
H           0.94627374164178    1.33952699807208   -1.81194400956150
O          -0.56191332724553    0.47462872241161    2.97912987426886
H          -0.87945555370197    0.67263954015101    2.07822168749872
H           0.03695605421416   -1.13137290476252    2.53744747096112
H           0.03979935957487    1.18670160524469    3.20746034875951
N           2.02514402256421   -0.52054699174193    0.39186202060324
H           1.43784270144576   -0.51145948441487   -0.48042823820235
H           2.95883744200991   -0.87502250621660    0.21704628437453
H           2.02812687395057    0.49289411519747    0.71643665837323
H           1.47792223749814   -1.12015264020287    1.09841537149536
