    26
        -50.46306798  Gyration_radius:  2.47097033039 Dipole_moment: 3.583
 S          -0.63947273626782    1.23480685615906    0.58107481491542
O          -1.88312528369750    0.84078085862630   -0.07368829113302
O           0.35256910687289    1.66699355599741   -0.37709684898893
O          -0.13404918836358    0.12881841027890    1.41089206318430
O          -0.93827036591037    2.42800827067767    1.52986667376703
H          -1.47910606972712    2.01890522622947    2.23546161089712
H          -0.04675884216230   -1.26337732302401    0.46143489165190
O           0.65058172001144    0.88264600836180   -3.00480346544683
H           0.48794985138850    1.58588180186689   -2.35673751049366
O           0.16731578781751   -2.00633438649352   -0.14553978860065
H           0.73876033236392   -2.58124140958637    0.37567034608364
O          -1.89253608422318    0.70498715901358    3.28213305978226
H          -1.49943664096852    0.69646289401321    4.15813287435233
H          -1.28360496447270    0.21539238335462    2.69625653929493
O           2.24535307332524   -1.35051896931084    1.70495594972548
H           1.50172869292660   -0.74186131676016    1.81502267646426
H           2.82310587678936   -0.94240883108342    1.05255139330737
O           2.16301635938173   -0.22360929188195   -1.06640383565636
H           1.63746266751943   -1.00625114347039   -0.84063052917314
H           1.44123930084491    0.43287997572300   -2.64269785373077
H           1.68950309818619    0.52558977681353   -0.66090783070782
N          -1.23493522457656   -0.67201743156267   -2.05253200751939
H          -1.61515675190061   -0.03344509058568   -1.27073236291600
H          -0.76962902905033   -1.45567810112407   -1.57234794453109
H          -1.97942234999815   -0.99633385240595   -2.66020889336922
H          -0.50308231609887   -0.08907602983294   -2.57912574115873
