    26
        -50.45568732  Gyration_radius:  2.56670365143 Dipole_moment: 1.981
 S           0.63947386346943   -0.44356750864556    0.64577001681426
O           0.52829026770534   -1.77875592986894    0.08844026644157
O          -0.49798155610950   -0.09062146938997    1.47499392781229
O           1.92798569484058   -0.40027358822159    1.49083095043209
O           0.81028622108615    0.55906287249603   -0.43608142309406
O          -2.34708046668878   -0.37218008266161   -2.23057551710194
H          -2.82071760782983    0.45005791584885   -2.09348631535316
O           1.08333534608728   -2.44629129336303   -2.34673152498735
H           0.88723847384113   -2.33485253449766   -1.38009033270402
H           2.03129322217487   -2.57298876448021   -2.41710415081696
O           0.12831380008422   -0.12159843202418   -2.69987686291440
H           0.45139055226522    0.23099938361063   -1.73773419354395
H           0.50728462198452   -1.07407104662002   -2.73537848172887
H          -0.89735806893485   -0.21733444105879   -2.60308904178089
O          -2.23546503740677   -1.52367839542214    0.10714848151843
H          -1.71782997233488   -0.93943435972376    0.70157088778064
H          -2.37163121483561   -0.85843007617870   -1.35754346801040
H          -1.68796348330208   -2.31067778197448    0.02610995453442
O           2.06380374670276    2.14272677265018    1.40729803679775
H           1.66703194439243    2.04783507906117    0.53120892043362
H           1.31930208898023    2.39058647851017    2.01510101842828
H           2.11996113604805    0.58548310586904    1.57858048980269
N          -0.15978737572375    2.35980273802130    2.88505391810826
H          -0.07905129083811    2.22249481992481    3.88462516625540
H          -0.44582128650986    1.46888254218507    2.47504536174050
H          -0.90430362897363    3.02682399594347    2.72591392506168
