    26
        -50.45993170  Gyration_radius:  2.42543705086 Dipole_moment: 7.476
 S           0.53508161188898    2.02805022297055   -0.40074343346356
O           1.06273136292575    3.34506901018924   -0.46683226168469
O          -0.91336386641840    1.97143836114945   -0.09057139564186
O           1.22731790176665    1.24417722466883    0.80527055337006
O           0.81606943013671    1.17652901528821   -1.55678700293166
H           1.60956349329959   -0.22076993383998   -1.31639769911116
H           0.63241059083440    1.42051318440669    1.57004587640982
O           1.98050478809645   -1.14021443967283   -1.28071293581924
H           2.91475597501734   -1.05013491632109   -1.47374452273730
O          -1.08034712625967   -1.37974886225157    1.73729150153057
H          -1.32950631036417   -2.11335181298011    2.30050121808267
O          -0.77226587524790    1.36694668212117    2.47780010608307
H          -1.02040172337959    0.43151302601966    2.41836071338903
H          -1.14888248773670    1.79723405623758    1.69018800038120
O          -0.39855778138678   -0.86412694131047   -2.78801523955461
H          -0.00379673948835    0.02111437909707   -2.66015995359043
H           0.32431444303380   -1.47006756542489   -2.58187697286373
O           1.48720275575497   -1.46655813322904    1.34047744965319
H           1.71286101820307   -0.54322384358652    1.51547224183613
H          -0.08855117642482   -1.45652919390308    1.60754131246866
H           1.66353627407713   -1.56606114238955    0.38132234646244
N          -1.86253715007307   -0.33084357473944   -0.64753494912240
H          -2.86210568641235   -0.29954939457595   -0.81748579489282
H          -1.34952979818234   -0.68712094907917   -1.50308396708697
H          -1.48710748933973    0.67705691916868   -0.45971586424340
H          -1.64939643431399   -0.89134137803104    0.19939069307582
