    26
        -50.46846767  Gyration_radius:  2.39933315676 Dipole_moment: 5.639
 S           0.95269114019487   -0.76334062453180   -1.34956340995296
O          -0.36879694833436   -0.19716887047290   -1.71449825266938
O           1.17079375074721   -2.04906304153985   -1.95507747666975
O           1.06781290984589   -0.80632879864227    0.10377333598528
O           2.02097414455348    0.24097541891139   -1.87768086849302
H           1.92161709962863    1.05635415337284   -1.32976566441370
H           0.73769215971137   -3.10855042350509    0.73962486848529
O           1.56114572503295    2.46250594521691   -0.48290175828936
H           1.84723301864661    3.20140477144604   -1.02276131902907
O           0.07615969337078   -3.34169003519133    0.08121959081172
H           0.47951472048978   -3.04294552558308   -0.76696562946003
O          -1.52799525516378    0.72162574513220    1.83487724838966
H          -1.89618825454022    0.85821847750990    2.70857214622056
O          -1.02287583594053    2.11658010813848   -0.62276134269973
H          -1.36753546170147    1.80549974758520    0.22557547136788
H           0.56378916113165    2.44893182208797   -0.52799103573713
H          -0.87113677313190    1.30609329494487   -1.15658393121125
O           1.04896859755493    1.04483742757235    1.93400402555940
H           1.18617760401316    0.28086707265953    1.32863094302099
H           1.37532539847633    1.79827267466781    1.42823909559103
H          -0.53830947054658    0.86311463725446    1.92824565268123
N          -1.71770126656696   -1.39061007493348    0.11877176485797
H          -2.67243666106895   -1.67783005218905   -0.06995661057708
H          -1.07569081892359   -2.22638116517575    0.25779236376448
H          -1.28050128284307   -0.88631632796479   -0.72394407664076
H          -1.67072706463238   -0.71505635677166    0.91112486910274
