    26
        -50.46163604  Gyration_radius:  2.55675012375 Dipole_moment: 2.250
 S          -2.14488228554792   -0.63668156153343    0.64634735647763
O          -1.23818112163473   -0.27181481598545    1.73391824145880
O          -1.49351574928613   -1.53125985548787   -0.28170439592010
O          -2.76814208938507    0.52566032920685    0.04172604856675
O          -3.33646156925157   -1.45538121303039    1.31067501082439
H          -3.92114138455274   -0.76164452500014    1.59884770359399
H          -1.61150957009584    1.42787438761498   -0.59859984703264
O          -0.89851902124528    1.93070138328308   -1.06971774740600
H          -1.28240702216115    2.77753520162351   -1.30329576502304
O           2.26828394304004    0.96900418276394    2.07767008265330
H           1.59245696687752    1.39747025047544    2.60723676764217
O           1.76163280190680   -0.94969790034223   -1.45330081632458
H           2.20102428646075   -1.61764871105034   -1.98018727179270
O          -0.54414306569351   -0.42112982319791   -2.48309662063689
H           0.89000389588224   -0.75725410384891   -1.92139975621021
H          -1.03409837233364   -0.92318122774965   -1.79805412835085
H          -0.68262917870338    0.51034075816892   -2.24735926984646
O           1.77948219528687    1.67942353120279   -0.41803016321944
H           1.98477396333985    0.86981205145934   -0.90529600383657
H           0.83680376289635    1.84870298284807   -0.58740972558268
H           2.19885511696663    1.37218015721567    1.17488788157679
N           1.09986843707091   -1.22372269400381    1.17042455419562
H           0.09161091494724   -0.91698052510995    1.35893741344405
H           1.70135135003160   -0.47589545446501    1.61931833299644
H           1.26520368262848   -2.14210780113991    1.56605873131912
H           1.28427911256303   -1.22430499391612    0.14140337642459
