    26
        -50.46147044  Gyration_radius:  2.59121704599 Dipole_moment: 4.223
 S          -0.74658420198995    0.03635925740297   -0.04352140377587
O          -0.18137882884111    1.21737861637033    0.82827010360749
O           0.40907780781852   -0.72725339409395   -0.49322135528524
O          -1.67739291245120   -0.72667773924210    0.75236837637551
O          -1.37408533442092    0.71906284125400   -1.18821578246336
O           0.80878191011474   -1.51128771834227    3.59746690096324
H           0.68652090530233   -2.13008656859028    4.31894154538705
O          -0.48812517354195   -0.17384214651941   -3.57754263449401
H          -0.72586653837437   -1.09421218163668   -3.69913728408671
H          -0.93408514951938    0.11290801488993   -2.75558063020679
O           1.83569539690349    0.42746227260572   -2.36842417819989
H           1.22388865672877    0.17352999477864   -3.08948418314119
H           1.21459739548317    1.70925065548561   -1.92239019375582
H           1.51246575627092   -0.11658167852469   -1.61184017433903
O          -0.98795763267951    0.40410262422394    3.09310618283327
H          -1.59957294971222   -0.13890243524589    2.57264455764919
H          -0.28504043601313   -0.21222254768231    3.40578813081458
H          -0.43230765841812    1.00617996069493    1.78637374157879
O           0.06431369259532   -2.68445905369740    1.32336056001563
H           0.63307178585867   -2.01760066685696    2.76779789866017
H          -0.80082554841451   -2.25174335203896    1.23308706591898
H           0.57547446496114   -2.25931004885094    0.61918507960040
N           0.50585538659779    2.43979516875089   -1.50107145780959
H           0.77163662491490    2.67691783839993   -0.54648760071589
H          -0.39633085961741    1.85694385160923   -1.42043154735791
H           0.38817342041426    3.26428844479401   -2.08104171778994
