    26
        -50.46846769  Gyration_radius:  2.39934766787 Dipole_moment: 5.642
 S          -1.69234211403800   -0.47159444056226   -0.47633821571933
O          -2.46656433394735   -1.64570355408181   -0.77547796520311
O          -0.76880214431545   -0.12181114041539   -1.58311726707601
O          -0.92698163275591   -0.60951667402042    0.75758949445081
O          -2.65039904785827    0.74536800141447   -0.30364726343038
H          -2.09156407816424    1.48372289802942    0.03918425841352
H          -0.72709790808557   -2.97466889233699    1.16783998972683
O           2.42187107957728    0.28987904747068    0.52282203983812
H           3.25553888493113    0.29151250557991    0.99468790738360
O          -0.64609865125263   -3.27023347466336    0.25589139368223
H          -1.40880945299529   -2.83864567557419   -0.19503744455926
O          -1.03865170996421    2.73050831056722    0.44021296565354
H          -1.44233293875509    3.54938342515907    0.14737891778421
O           0.52861855942204    1.05612350605817    2.13032420137679
H          -0.08384190304659    0.37964782486225    1.76121398973122
H           1.73106755322614    0.59656644628640    1.18377947595616
H           0.11620312672227    1.89353780896621    1.88822954377413
O           0.83215440028453    1.94355449439710   -1.20204889755591
H           1.54616937676240    1.50909343400751   -0.71553434211295
H           0.24194215030521    1.21857929456367   -1.50347848746374
H          -0.28828016196560    2.54349723951052   -0.19146587942343
N           1.14822229529994   -1.67859018083805   -0.87264967442329
H           0.40097893739552   -1.03856629122554   -1.30627003125874
H           1.71145393920044   -1.07163273576035   -0.23976319226500
H           0.57078108546272   -2.39553471946383   -0.34112389218462
H           1.72676471855368   -2.11447641792856   -1.58320162509337
