    26
        -50.46147043  Gyration_radius:  2.59098264372 Dipole_moment: 4.226
 S           0.74035885759818   -0.01790256035270   -0.11426096080209
O           0.12413404521119    1.31731813299144   -0.67238369677954
O          -0.36673474962944   -0.76685652448375    0.46410249159459
O           1.41316817590350   -0.70607849148788   -1.18927479657963
O           1.64937646534994    0.43809457511035    0.95149266880227
O          -1.66505853302591   -0.88891372150096   -3.50953961081895
H          -1.74965055232738   -1.39577124318061   -4.31845809092440
O           1.18494246591335   -0.75394711820788    3.32955281243288
H           1.35184860126156   -1.69569700770534    3.26899516368504
H           1.48033875927281   -0.37324761105382    2.47837039005433
O           0.36660405206339    0.81137078586370   -3.14737746360044
H           1.01863107640953    0.15802203851652   -2.85093669084596
H          -0.43982219632357    0.29498863221884   -3.38178888951340
H           0.15065624166706    1.24000708474391   -1.68185701441032
O          -1.26688523853461    0.17673339441746    2.74087184835005
H          -0.54949826876222   -0.22474109779318    3.27266548655690
H          -0.62860883820412    1.46904495809174    2.35336474841116
H          -1.15703088754060   -0.26392734636265    1.86527806787970
O          -0.58412794459272   -2.44089325932748   -1.63232423803912
H          -1.37172826417132   -1.52640239397200   -2.81443053416176
H           0.31841380201360   -2.08405911936208   -1.67445559478261
H          -0.89695377111850   -2.09514618281326   -0.78335522092321
N           0.04718198949525    2.20860860501150    1.89526990135924
H           0.85361968623720    1.58768673068518    1.54251923237848
H           0.35937844814841    2.92281152250404    2.54523403476072
H          -0.38255342231406    2.60889719743553    1.06272595594682
