    26
        -50.46200309  Gyration_radius:  2.5051373243 Dipole_moment: 4.546
 S          -1.26157843667287    0.95079313030873   -1.85899557542825
O          -0.04975523024791    1.76301068007412   -1.88909028588941
O          -2.10734500681295    1.05727580001576   -3.00247927849182
O          -2.13582956513600    1.57863704055834   -0.64041179869036
O          -0.95743225555100   -0.40635496757302   -1.41253350725823
H          -1.47512599141013   -1.02758070207041   -0.01689019208151
H          -2.74310061745834    2.08577177363361   -1.16749614644708
O          -1.72252725851129   -1.41504483765106    0.86122246635005
H          -2.47402554013139   -1.98650363173932    0.70032410224883
O           1.49436234268234    0.64986433996818    1.89751153872030
H           1.86244845189648    1.09073526328716    2.66374598748479
O           1.33780044529634   -1.84361585380801   -1.27374110143217
H           0.44173690206119   -1.55439167120037   -1.52067671266036
O          -1.09038703520596    1.03241890958260    1.87366213755156
H           0.51481606518863    0.84068739873591    1.90989736168715
H          -1.40315013090544    1.46926538019842    1.06965882334637
H          -1.42190703815858    0.12177574738095    1.78812916839481
O           0.91426122513704   -2.09130319415130    1.35456846744624
H           1.25829529929420   -2.15325419765497   -0.34130838135189
H           1.24469642127963   -1.24355139282048    1.68294726153105
H          -0.05220107267188   -1.99588290310883    1.31624059366898
N           1.99322980101242    0.62853633347417   -0.79389452447570
H           1.92931006180117    0.72867466908256    0.23534705175456
H           1.86801373020026   -0.41347619479487   -1.04161675522683
H           1.16513846366397    1.13858559977596   -1.24815909664058
H           2.87025595935622    0.99492749049702   -1.14596161411375
