    26
        -50.46200320  Gyration_radius:  2.50494755941 Dipole_moment: 4.540
 S           1.40125068054156   -0.79733473129000    1.83025772246081
O           2.24035540281261   -0.80717990845072    2.98346609246351
O           0.35938815422667   -1.81823971762686    1.79571090707493
O           2.38858552894752   -1.18900396344333    0.59950577895981
O           0.85706556025192    0.50279055005609    1.44658757308376
H           1.26216682167657    1.27697144556519    0.09087788078114
H           3.07532337364938   -1.59965524828924    1.11282619743113
O          -1.66151817151530    1.50176644608751    1.33932001957241
H          -0.72946704131966    1.36853871907879    1.58649953406980
O          -1.33813283870830   -0.81453231593093   -1.95148094525706
H          -1.61319103452208   -1.27631676174051   -2.74398703768452
O           1.44078786893788    1.74620761732142   -0.76374979398093
H           2.07501423656463    2.43544879780376   -0.56408133765983
O           1.27290798281920   -0.72249550444204   -1.90046858458208
H          -0.34016920337721   -0.82370331250483   -1.95573207320167
H           1.43207998172579    0.22789292940357   -1.76653929222609
H           1.65510071596893   -1.13456209917524   -1.11363110100352
O          -1.27146164391852    1.95552376585432   -1.26664422282465
H          -0.30411472842281    2.03584256332787   -1.21732505931027
H          -1.43923174178842    1.07957542506161   -1.64121617937671
H          -1.63313570764748    1.86770084629835    0.42446800867086
N          -1.85115417404631   -1.02070935362854    0.72912232364758
H          -0.94614096000147   -1.39367653132756    1.16960475223799
H          -1.76414171956294   -1.05508358644915   -0.30274580201539
H          -2.64817207611441   -1.55844774724052    1.04995587816796
H          -1.91999527717856    0.01268166568560    1.02939873049807
