    26
        -50.46433701  Gyration_radius:  2.51901556542 Dipole_moment: 3.767
 S           1.12412941381309    1.64027659165307   -0.94963329668213
O           0.63213049930000    2.40937307839798    0.19106436732588
O           0.17719175477360    0.61129788742126   -1.34112840942455
O           2.46059918406446    1.13211932049600   -0.72692272040531
O           1.21257426012251    2.64186781642013   -2.17090871970932
H           1.98492423408715    3.14927729681410   -1.94452328489612
H           2.61012009411987   -0.13308735466202    0.38677084613826
O          -1.88104725175253   -2.09290843356205   -2.06646717452902
H          -1.53217783422549   -1.82640459094879   -2.91885060734504
O          -1.67663359570016   -0.78640628662547    1.57212255577158
H          -2.44741947433119   -1.08028903363216    2.05808169300383
O           2.36798291052101   -0.80168966347804    1.06616654868608
H           1.82043359059835   -1.45346958983349    0.58931567526031
O           0.21334251187982   -1.81896056274773   -0.26864270180384
H           0.26497852444556   -0.95329177008965   -0.72988685090159
H          -0.41992724945972   -1.68887176048723    0.45334090237991
H          -1.10520314266986   -2.25845264169155   -1.49959908197218
O          -2.38895559151527    0.21218975934864   -0.69228500856482
H          -2.02438778284819   -0.35284685922210    0.72718680794805
H          -1.53524830518110    0.59060447703807   -0.97700572474924
H          -2.47695886471663   -0.60064818147086   -1.23017147140290
N           0.51500133718300    0.69616079385677    2.12516157021555
H           0.65181330130360    1.07343867015286    3.05636932563657
H           1.32142436928929    0.04106617322159    1.83914936428231
H          -0.38296246256060    0.17220966658998    2.05697327203798
H           0.51427557938118    1.47744520699139    1.39432209365093
