    26
        -50.45364618  Gyration_radius:  2.66198029656 Dipole_moment: 7.067
 S           0.57844776462962    1.01067720887119    2.46326795064150
O           0.11544612457492    1.65153221085924    3.64727849972709
O           1.12467363838525   -0.33521809703757    2.65007561425856
O           1.85643508443459    1.88789709343985    1.96275948053727
O          -0.31287977597800    1.04207405897392    1.30902890468488
H           0.52169070926642    1.30950653805038   -0.02628703539365
H           2.07336493678891    2.35236330147604    2.76431500833999
O          -0.35866561345888   -2.21524250473970   -0.97608917798849
H          -0.51411924204057   -3.02251389638047   -1.46653494251829
O           1.20338124379281    1.31918503614320   -0.75170095704408
H           1.76915818550245    2.06584541820545   -0.54618574828177
O          -2.80424433831756    0.61904514548773   -1.89918160454457
H          -3.65654999111742    0.31752864146338   -2.21441851166555
O          -0.34705551012462   -0.18236988970900   -2.57741399564073
H          -1.26137920813153    0.16590640376591   -2.48399341426343
H           0.21208284945970    0.47337270938638   -2.13823485506512
H          -0.37976401272178   -1.46234961942643   -1.64686377038592
O          -2.26654247165557   -0.59702382468425    0.41118401018758
H          -1.69156710015565   -1.31132808080982    0.10348776841106
H          -1.67525919986020    0.04072190574495    0.84805236727650
H          -2.70049851232987    0.25113654102314   -0.98758525490784
N           1.72536899389702   -1.09605721713461    0.29951526661854
H           2.62412930531266   -1.56268617552723    0.24891946809320
H           1.47388467561548   -0.84408628067571    1.33387161285810
H           1.72387974259766   -0.18892014964608   -0.22282302877913
H           0.96658173157752   -1.68899648717219   -0.10444364513837
