    26
        -50.46021498  Gyration_radius:  2.60091313414 Dipole_moment: 5.800
 S           0.69053884081414    1.76638703004942    1.13545658841977
O          -0.23008228566004    1.56329046857882    0.04223063355321
O           2.04083833248125    1.30209848600567    0.81960269299089
O           0.22713742973125    1.19648157454141    2.39148722661151
O           0.79495429620749    3.32686576181448    1.36377147108004
H           1.31480013240396    3.38085601674000    2.15931127348257
H          -0.21730610590442   -0.31187787020340    2.22880968297900
O          -0.40445402765537   -1.27347134741773    2.04086661136445
H          -0.56996462719726   -1.68272931530722    2.89185181491256
O           1.42387465832303   -1.51990768317907   -2.16385677661083
H           2.16349262384874   -1.24601719381746   -2.70842737617520
O          -2.76800558125346   -0.59622856367766   -2.02799509702142
H          -3.47113895770853   -0.03842275407149   -2.36330044429407
O          -0.28378037843281    0.38390505181392   -2.42479365242987
H          -0.22106470884068    0.91176278604973   -1.61038108939809
H           0.70923197658604   -0.82208239945451   -2.31921217278643
H          -1.18348069498262   -0.00950466051537   -2.40712620788463
O          -2.41877662340652    0.07029046590564    0.53722403496210
H          -1.97403356727338   -0.62360269080671    1.03962387482455
H          -1.73005396555714    0.74441518185653    0.38705757402549
H          -2.72691748043998   -0.42597212034825   -1.05820020422115
N           1.77516381472956   -1.23994361124419    0.41432329704900
H           1.62837329469977   -1.41155823993407   -0.63486989146303
H           1.95927453456839   -0.19386248419779    0.55770883161011
H           0.91357395870901   -1.46444993867124    0.95043680482043
H           2.55780512117566   -1.78672196048802    0.75840048957670
