    26
        -50.45981093  Gyration_radius:  2.5289519212 Dipole_moment: 7.026
 S           0.28127846593539    1.82449239596299    1.19825299510003
O           0.04743769532531    1.65609379390192   -0.21867722330340
O           1.68423993515682    1.61291684696661    1.55472595249419
O          -0.59300117354342    1.01001636757387    2.02578673910057
O          -0.05301921753819    3.32902927237203    1.53700812168553
H          -0.03331898706030    3.33451470955138    2.48852302925215
H          -0.39247234381030   -0.55861090985065    1.99750129104370
O          -0.16863574712218   -1.53038979732602    1.96427576039002
H          -0.53753086439487   -1.91095323201822    2.76260473760391
O           0.96135309584946   -0.47293395423626   -1.52590377059345
H           0.67052184992612    0.41344858005748   -1.22454978791686
O          -2.29467763774855    0.56260280739715   -1.06254990976211
H          -1.58235784333092    1.09538969382718   -0.66929464407295
O          -1.14118556064744   -0.14597225781401   -3.50715676253662
H          -2.12415415721010    0.57633370697585   -2.01942293106657
H          -0.23702533140083   -0.13419795788743   -3.16625607969477
H          -1.43352009466118   -1.05919316284848   -3.45637392325018
O          -1.12742154617047   -1.78939288306258   -0.66997205015182
H           0.19029035089848   -1.07001493696020   -1.30244746658454
H          -0.94068407781552   -1.86685390131599    0.27597773112273
H          -1.73128961810869   -1.01029061606433   -0.75594037750554
N           2.14373377977919   -0.79840151901978    0.76178449922397
H           3.07312210520458   -1.19056192860883    0.86318134683224
H           1.81632409070578   -0.75753468105383   -0.26594246617445
H           1.43242608968448   -1.33103236373926    1.29561696275361
H           2.08956674201773    0.21149592723871    1.11924823595946
