    26
        -50.44493664  Gyration_radius:  2.70445914724 Dipole_moment: 6.283
 S          -0.39848305334949    2.73099962574158    1.08031655731587
O          -0.04334119054850    3.43268417432830    2.27067119852751
O           0.70903045599623    2.48638820546182    0.15210855461968
O          -1.39039036838002    3.70853722847072    0.27632756932104
O          -1.15562766380317    1.49579640927335    1.28522487699503
H          -1.64907393232349    1.38355522765976   -0.29827527322436
H          -1.35943884560200    4.48434740368697    0.82612147932347
O           1.47558128747222    0.16496518599404   -0.23864052768549
H           1.24050246920119    1.18128238124146   -0.08712732502720
O          -0.75557333341996   -2.59910230392141   -0.49493082814243
H          -1.22709246607769   -3.41064613750783   -0.68340766410980
O          -1.76401154568870    1.39376215967656   -1.27137980729737
H          -1.66063005430590    2.31591220835483   -1.51481309412583
O          -0.09666948142570   -0.47755898326292   -2.06688946508560
H           0.89847897606569   -0.10380911831777   -1.09915340251193
H          -0.48664859592174   -1.27896091234021   -1.66852636342940
H          -0.76660707582309    0.23801159030424   -1.92610920090661
O          -0.00991905296432   -0.83342399945739    1.55556044020110
H          -0.51225535263118    0.01018271702772    1.64711058086366
H          -0.57963386739864   -1.42727290313568    1.04225494564299
H           0.98535778576808   -0.30669298326863    0.54350133226468
N           1.83427654248765   -2.95665774017811    0.14701862911083
H           1.83296263573484   -2.61029258700578    1.09994818542815
H           0.19236474233912   -2.83839773650622   -0.31521982483290
H           2.39923622204627   -2.32189343223788   -0.40490880103578
H           2.28760477253598   -3.86171570007499    0.14321723781384
