    26
        -50.44493597  Gyration_radius:  2.70494203361 Dipole_moment: 6.283
 S          -1.37977128871159    1.79071159185362    1.91824618278499
O          -2.30477704665061    1.63880193083625    2.99371310251611
O          -0.01257451569466    1.35122614499990    2.21101609192340
O          -1.25091163605294    3.37492745831518    1.67331368278526
O          -1.81499724731239    1.23620839662489    0.63600337963795
H          -0.67077084925847    2.05060763802381   -0.25260471320335
H          -1.77862786434073    3.70907062883950    2.39094712368962
O           0.91288793095067   -0.61537984855873    1.02557980419156
H           0.57416829382209    0.19701790979155    1.60543216950859
O           0.29897771666350   -1.27405665964612   -2.42055968544319
H           0.30720221971334   -1.52488798015303   -3.34428795162652
O           0.11696533334030    2.50373369937316   -0.61929140194937
H           0.29370440149090    3.21480077280580   -0.00005108302554
O           1.79282460763507    0.51667684272801   -1.01692800691847
H           1.40358702818475   -0.14946155383820    0.19629893648173
H           1.33020565130834   -0.00444454705088   -1.70054557405514
H           1.27838040489627    1.35889583965937   -0.93604650401650
O          -1.27843374646309   -1.20945428968850   -0.10033890400898
H          -1.05618915258201   -1.11986444905988   -1.04021909006038
H           0.03775239412560   -0.98949969916443    0.61510926107672
H          -1.67962045527017   -0.34877988368256    0.16557467997986
N           1.02897183967126   -3.24548831431582   -0.73923361574961
H           1.32552634814927   -4.16138035251669   -1.05174913318004
H           0.16958936710275   -3.35656334765915   -0.21291423475744
H           1.73113814518370   -2.89054219728995   -0.10078900695115
H           0.62479212012351   -2.05287575119576   -1.89567551964948
