    26
        -50.44493636  Gyration_radius:  2.70463861479 Dipole_moment: 6.285
 S          -1.25194562558397    1.55296417862486    2.19293488724761
O           0.20953904142553    1.51677087064560    2.08971603654598
O          -1.81280098426926    2.85550440665450    2.34849128716930
O          -1.57963182232739    0.77028772662646    3.55895024939160
O          -1.84439372431776    0.73994737241146    1.13046551509929
H          -1.19202011687104   -0.68668502933568    1.68105846843995
H          -1.97668062851243    1.46664046142906    4.07133008144213
O          -0.65569842100224   -1.41561580849422    2.05682159436785
H          -0.50911067745478   -1.15884514278816    2.96945389653539
O          -0.01284379526498   -1.82188271856822   -2.06156389053188
H          -0.17535086245881   -2.55987495419248   -2.64927668677419
O           1.26092216998871    0.82011761933241   -0.04081747740381
H           0.88980746246770    1.17402512122273    0.87998630168318
O          -0.92873158459867    0.72349241721664   -1.31308493092583
H          -1.44819709442098    0.80366511515123   -0.47865009732518
H           0.42941242930252    0.86169391693269   -0.65842251594760
H          -0.97667069275155   -0.21150221314570   -1.56658295430912
O           1.30066661585906   -1.64934993164818    0.31550364665210
H           1.40043764558620   -0.22788380963998    0.12705186873945
H           0.63308376915969   -1.69075402068046    1.04585527234889
H           0.82367582130439   -1.93482521276325   -0.48698669831676
N           1.57346369460400    0.08580114680524   -3.10630063236620
H           0.92670165696195    0.86648444466199   -3.12523983348824
H           2.00258143615527    0.01238149836194   -4.02016264796918
H           2.30016978851839    0.31101514496178   -2.43703596159465
H           0.61361451849267   -1.20357261978032   -2.52349476871403
