    26
        -50.45445998  Gyration_radius:  2.74362519714 Dipole_moment: 5.600
 S           0.37019226622775   -1.36795875505804    2.48579506072776
O           0.67527584299724    0.04955430926803    2.71946322169297
O           1.03984528405842   -1.89279583166437    1.32317574707025
O          -1.06924691632903   -1.59131520998717    2.48518781404843
O           0.93983991183627   -2.14570971667559    3.74623488812601
H           0.41228999559946   -1.79599454543320    4.45799177207267
H          -1.83505329085682   -0.95898212500035    1.25915388633744
O           1.29652720209603   -0.77778298022750   -1.04017002709791
H           1.34399893452393   -1.34197947407696   -0.23796369244382
O          -0.61496341371235    1.99673147930664   -2.16802321181800
H          -0.94472896510008    2.38788930095047   -2.97790816171606
O          -2.27723390181540   -0.43516298198178    0.53225645943880
H          -3.18883732673736   -0.32972066159421    0.80802588130945
O          -1.18254381439408   -0.76507762521897   -2.02254715546298
H          -1.70302993165445   -0.87978733858283   -1.21457834353082
H          -1.13319319908761    0.19470095934525   -2.16702054897534
H           0.47866667697342   -1.04563980556704   -1.51725853317456
O           2.06726524463038    1.49206574444740   -2.31107290369963
H           1.98388135118010    0.58047861972555   -1.97819359695800
H           0.34776565455734    1.90243547395127   -2.28812620449227
H           2.96109304795711    1.77401637337930   -2.11460865071182
N           0.00738663497565    1.02590405692937    0.44032975901158
H           0.07448961888646    2.01198371126073    0.20873402108237
H          -0.97499701848164    0.69908451094367    0.36442632321566
H           0.58925175112225    0.43837872935527   -0.22342465980277
H           0.33605838053942    0.77468379221464    1.43012087572453
