    26
        -50.44145350  Gyration_radius:  2.45426736018 Dipole_moment: 2.174
 S          -1.00205205618686    1.18736579507954   -0.89595177740965
O          -1.98538911262204    0.23051013210576   -0.44779861585999
O           0.10880763590991    0.62423674536983   -1.63666192665819
O          -0.56442751168288    2.08870839437133    0.17778251037012
O          -1.78219782704945    2.12579289282010   -1.92993433797493
H          -1.12989102659445    2.74103231085085   -2.25313646053556
H          -1.18383574525687    1.41175788080730    1.56053676871414
O           0.24567438677674   -3.02314715819519    0.47964268026032
H           1.10230341307409   -3.34381942300869    0.19025747931263
O           2.61212558119216    0.43360979867282    1.66977460068534
H           2.57448641561795    1.00900192372009    2.43642243698775
O          -1.47404458353090    0.65861647776848    2.13270589812333
H          -2.21763199954375    0.29493172364657    1.63311965082016
O           2.01147191969420    1.94777847776587   -0.34131165293568
H           1.16029626317884    2.27348966266886    0.01263118632279
H           2.55096965459011    1.03730695378065    0.86680745687676
H           1.69144979597085    1.33715605502971   -1.02855693882406
O           0.39870459722604   -0.60015974286002    1.05091333297394
H           0.34127260522816   -1.63945193240575    0.92118931411650
H          -0.37825217752223   -0.18967126192934    1.60702340729053
H           1.31805001623024   -0.26966012121996    1.38155745545594
N          -0.92151003381329   -2.07966774922142   -1.61893630232240
H          -1.50709471026334   -1.36416359014024   -1.18069588269212
H          -0.27715222314219   -2.78491239015003   -0.37367868088641
H          -1.48237808443214   -2.56395353137871   -2.30859445941045
H          -0.20975518304880   -1.54268829388244   -2.10510713283908
