    26
        -50.46313961  Gyration_radius:  2.55655477604 Dipole_moment: 3.433
 S           0.27189750843658    2.20187997173061    0.34780958416725
O           1.07096721349723    1.40829390259672   -0.59598154423715
O           0.28487419322647    1.60067783647286    1.65421490544055
O          -1.04682891278008    2.48473563745057   -0.18941837614736
O           0.99242047418116    3.60806716967155    0.45789256890558
H           0.61129625644198    4.06818877304297   -0.28240515407967
H          -1.84806489396507    1.13016687967855   -0.43927190660619
O           0.10079845993884   -2.08871742500636    2.03329079629656
H          -0.38394988831064   -2.85896128670981    1.73337795898216
O           1.29568590135993   -2.21638427842116   -1.96958053338534
H           0.75232248684643   -2.99853149169285   -2.07211129395769
O          -2.29002025137487    0.24983858433461   -0.57296636644065
H          -3.19414310647195    0.44985152649536   -0.82273042774530
O          -0.22970892744475   -0.12005203372359   -2.39360134583460
H           0.29309508875861    0.55029521534713   -1.91549265428402
H           0.74121865713903   -1.44999893243232   -2.27770842978613
H          -1.06079909479310   -0.17068623023246   -1.89355238098717
O          -1.65260677342162   -0.17108697944735    2.09722166837109
H          -0.58449817391194   -1.37650337824801    2.18736282883871
H          -1.01015661269387    0.56584328804821    2.11390976821908
H          -2.02599754101333   -0.15104910733145    1.20024404338957
N           1.79479408171698   -0.94564362326145    0.33033636136985
H           1.13781066040195   -1.34557026732983    1.05756539033943
H           1.50956534809967    0.04008422336624    0.06399449654580
H           2.74373165689332   -0.93403714716552    0.68866760653584
H           1.72629620926225   -1.53070084722815   -0.54106755391492
