    26
        -50.45316407  Gyration_radius:  2.76399264904 Dipole_moment: 6.486
 S           1.27692540283936   -2.46394841421856    1.22283023536666
O           2.08751330197282   -3.63491203839906    1.16089624461113
O           1.95602048702734   -1.26107575885682    1.70770089630603
O           0.14728033397773   -2.77523343952784    2.34841207342765
O           0.48943257595646   -2.15731500097241    0.02995634496048
H          -0.89704953645575   -1.52834530806666    0.62057702305750
H           0.57837200663071   -3.46707845559184    2.83879692415624
O          -0.87204866137217    2.84643285084578   -0.30500910145776
H          -1.32739281561537    3.67881574371637   -0.43459551108621
O           0.46029597192265   -0.16200123896519   -1.76683657330109
H           0.58620671992183   -1.04326492962678   -1.37036510702521
O          -1.59506724618956   -0.97636796410900    1.05464099451459
H          -1.80747885947033   -1.44994281883843    1.86102143966832
O          -2.07316734796630    0.51422819016185   -1.27404589336891
H          -2.23248979057526   -0.07489333028032   -0.52471587002988
H          -1.83230594268029    1.37448609853043   -0.88958299933091
H          -0.51720681715492   -0.03400912912745   -1.80889762798684
O           1.04526410355784    2.46401311939992   -2.17902368632115
H           0.95103075217641    2.72876420136107   -3.09519238915823
H          -0.16167415848676    2.81060321318520   -0.98051313588508
H           1.03539541972485    1.49045764461059   -2.17615577593229
N           0.54663324452946    0.66149787882091    0.80635548121361
H           0.62715922923981    0.52819923740126   -0.23196863782204
H          -0.40687886999887    0.35027758338230    1.06922540662735
H           1.22899761591549   -0.04998636664605    1.25353198262418
H           0.70623289056375    1.63059840181706    1.06295724220000
