    26
        -50.45316394  Gyration_radius:  2.7629614359 Dipole_moment: 6.491
 S           0.79550683866987   -1.74912064175482    2.34385222744337
O           0.43131102648415   -0.41401423423828    2.82160989260671
O           0.56857711234935   -2.80778431459749    3.27104062222955
O           2.40658793017988   -1.68332510366325    2.14309289804224
O           0.29472221978744   -1.95844874081331    0.98652043195392
H           1.41148512391103   -1.24050354650054    0.03493944500813
H           2.69781554720362   -2.10990755158757    2.94199433173032
O          -0.45020436501419    2.46780792114334   -1.63421022212591
H          -0.49440382394830    3.15956611991339   -2.29492423471703
O          -1.56412491857482   -0.78170541244869   -0.55368195494092
H          -1.10937982930831   -1.44231234409340   -0.00006017095278
O           2.01440040743843   -0.60979846530917   -0.43289106456267
H           2.87376004870171   -0.76049358806582   -0.03486284363240
O          -2.91508431897415    1.53831569343263   -1.00126955438244
H          -3.63335875071640    1.44500460523725   -1.62865701617373
H          -2.65131514591302    0.63400399373853   -0.75484001579680
H          -1.37691435154680    2.22852076358328   -1.42028325221938
O           0.15873225180973   -0.12621048489883   -2.48238177140308
H           0.97383526380980   -0.40194108504427   -2.04253085211495
H          -1.03973346155420   -0.73792764671086   -1.38840608813206
H           0.07581790794837    0.82829907180621   -2.31524021024284
N           0.10370853392450    0.94471760030710    0.69071483150171
H          -0.05401236475345    1.94751310154425    0.69482833224927
H           0.21357898529707    0.49375058663925    1.66880211738732
H          -0.69094309936592    0.44005131266457    0.22599876999620
H           0.95963523214309    0.69594238972415    0.16084535124227
