    26
        -50.45059448  Gyration_radius:  2.46319188976 Dipole_moment: 4.137
 S           1.74371728423214    0.83119910506164    0.52153905111458
O           1.11470691734838    0.75507852813550   -0.78321260293709
O           1.67324958457194   -0.58086807172230    1.16597850371959
O           3.08236378512400    1.28833201133355    0.53618122813658
O           0.84556927779697    1.67871801570497    1.43803561730301
O          -2.22705325940563   -0.35175698033718   -0.07623958480022
H          -3.09772699792785   -0.66655836545215   -0.32071184430633
O          -0.09254731306047    2.86168843534137   -1.91083546158843
H           0.53203426374655    3.58600526306407   -1.97226583312193
H           0.42786779779876    2.06316182861157   -1.69984880596988
O          -1.34898915944668    2.17964106197425    0.34211662107574
H          -1.76386932121104    1.31943395651112    0.12830903071269
H          -0.07017509289820    1.90714464714137    0.98721536379180
H          -1.06857451020076    2.56339467165518   -0.51792282622626
O          -0.44912345626603   -1.26949526640303   -1.67560590667296
H          -0.02646245262355   -2.04398908463016   -1.23640300066757
H          -1.58110286865792   -0.72679511140580   -0.76130100082605
H           0.18643305335261   -0.54207829698171   -1.56425690694384
O          -0.71569271512924   -0.65776151692415    2.10322023655516
H          -0.79394590401824    0.18184801509808    2.56480899098399
H          -1.34784512821286   -0.62355585199516    1.35096685290138
H           0.74625005962594   -0.67750150997963    1.54566784853325
N           0.89075523529602   -3.14329506972571   -0.21725924100597
H           1.48545456788912   -2.47770462735322    0.26639924537088
H           1.48744218282679   -3.80344085789861   -0.69947467151878
H           0.36726417944916   -3.65084492882261    0.48489910638535
