    26
        -50.47071375  Gyration_radius:  2.41581695397 Dipole_moment: 4.137
 S          -0.72881117664490    1.88645134532153    0.13801160314137
O          -0.83667272366666    1.45133787782025   -1.23360443564110
O           0.63660709401119    1.99536700833916    0.62375021412600
O          -1.55352886240230    1.07411138902335    1.03516894642443
O          -1.32802453457551    3.35107458445858    0.19006038675188
H          -1.02558434145664    3.66483563954610    1.03536240333115
H          -2.30068841294036   -0.03715311211735    0.07662731469469
O           0.87978079877302   -0.19824459164628   -2.42806492072597
H           0.25701002981796    0.52221863156021   -2.20240429679477
O          -2.54284037704597   -0.61712873627501   -0.68231941253376
H          -2.47935676560208   -0.01890092252897   -1.43538109481688
O           1.21729467627647   -1.83383487787474    1.24306198594523
H           1.55139362048555   -2.49417158562283    1.85100877517210
O           2.44189056320227    0.23464618732268   -0.34132699942530
H           1.89364551123315    0.97186166663083   -0.01028855889604
H           2.25077019169527   -0.51758165750321    0.23454528573552
H           1.65578659678427   -0.02501974642165   -1.84376232094722
O           0.35824749791246    0.21175336018214    2.59461747254233
H          -0.52726682385620    0.39390658389024    2.21969032434191
H           0.86585132093020   -1.08648347629100    1.81106914274320
H           0.88321591891533    0.92806088779630    2.20651199903411
N          -0.31652433608900   -2.00329665880969   -1.01248901250833
H           0.21322419342159   -1.33028021864919   -1.68917250328285
H          -1.26231832191282   -1.54785313982707   -0.83518049919827
H          -0.42648236081182   -2.92563483958222   -1.41846054638259
H           0.22338102353484   -2.05004157874821   -0.12703124282383
