    26
        -50.46192215  Gyration_radius:  2.60645389238 Dipole_moment: 2.690
 S           0.42412719391714    2.39256209044941    0.52739040917131
O           1.68441925748750    1.82533117538499    0.98559053279898
O          -0.50490603163538    2.71810390428317    1.57378113241329
O          -0.15123232804691    1.54943058186200   -0.52711895208775
O           0.78511950230207    3.77229157286789   -0.18456317734040
H           0.31605928601729    4.40099320999423    0.35510665431160
H           0.45428648997460    0.49358201341895   -1.59166529791454
O           0.25495922297448   -1.97652920931231    1.23810931537998
H          -0.37542537172946   -1.27074945335389    1.47497842678687
O          -3.02072922026676   -1.37054250740495   -0.35930944776836
H          -3.53854109928518   -1.97270296566178    0.17720242963489
O           0.89280451167236   -0.19932265020134   -2.14648170672074
H           0.93042380548295    0.15527162181021   -3.03548229078068
O          -1.43309638378632    0.17176293360339    1.28779233712809
H          -1.02476587961894    0.62828871928978    0.52066997097512
H          -1.49825011846956    0.88124725921695    1.93712783480719
H          -2.59670049171231   -0.74629369633329    0.25584677032813
O          -0.63463740900080   -2.40118255495025   -1.21001923132363
H          -1.54982769199225   -2.08432717027273   -1.08528021451288
H          -0.17148617900929   -1.69684068678758   -1.68671512427683
H          -0.08506171516834   -2.32973326669532    0.37575928548332
N           2.19947843731591   -0.59927987450091    0.21963851802660
H           2.05192243554259    0.40143526596427    0.56349256280551
H           1.46550810318806   -1.22419955866711    0.72223327911283
H           1.97826828406569   -0.60891604923379   -0.78812105412678
H           3.14728339975122   -0.90968071458026    0.40003703774147
