    26
        -50.45048644  Gyration_radius:  2.70095370307 Dipole_moment: 6.737
 S          -0.91013738018681   -2.85886373832208   -0.05712168299550
O          -1.64445742337448   -4.04009960989881   -0.37116919170861
O          -1.31943941523448   -2.16392481020068    1.16659021955628
O          -1.30984333058292   -1.80019790518294   -1.23921588013836
O           0.53786291617479   -2.95853011510593   -0.13587715719926
H           1.46176908581069   -1.72485028458108   -0.22818160980920
H          -1.78976244002099   -2.39053542942453   -1.81079673016756
O           1.38736299425069    1.32789624015839   -1.63229323119657
H           1.70427816505095    0.47597645022742   -1.29469951913068
O          -1.38458879194775    1.91666407763882    0.77896553267070
H          -2.29898497219828    1.94827316736273    1.06183644195918
O           2.03865204515998   -0.90758780933628   -0.13984115223676
H           2.93157474814131   -1.23340400097653   -0.01901074129793
O           1.18114323074621    2.93908359288391    0.62934955562956
H           1.47525566574292    1.94527352790923   -0.88606562809652
H           1.27335813386326    3.87044198353404    0.42408849608495
H           0.23186987199277    2.77106537192905    0.73964075153274
O          -1.24869462684094    0.96749110669067   -1.59840342394277
H          -0.29523237573714    1.13358378286820   -1.79576732220595
H          -1.33403582190963    0.00478804826167   -1.53304544735131
H          -1.39877688241458    1.59402848653017   -0.18244263360968
N           0.15621318410427   -0.14534792761624    1.64055606740061
H          -0.40099039340702    0.69833486440458    1.37747581904203
H           0.98625921730269   -0.24872666218003    1.01967611753147
H           0.44367901405935   -0.09415758580924    2.61176844602189
H          -0.47433441857722   -1.02667485178944    1.47398388359111
