    26
        -50.46422731  Gyration_radius:  2.57400814098 Dipole_moment: 3.118
 S           0.74609993645369    2.09170215126098    0.63656232093532
O          -0.47988285636590    2.83719958364519    0.46274694877707
O           0.93220611180033    1.05681859563844   -0.38408631173925
O           0.91995615517100    1.52738625761887    1.96078522747058
O           1.91052731552603    3.14648412886982    0.40924102441891
H           1.40138633075211    3.93464646736312    0.25099935024836
H           0.17865624202521    0.21436956278686    2.47371346981600
O          -0.35875420208138   -0.59284621482269    2.69031189376449
H          -0.43094957801471   -0.60855191650555    3.64549221147521
O           1.77735391262137   -2.42108245169162   -1.77170203936382
H           2.70469081703207   -2.24369687948389   -1.93293025421404
O          -2.02456362393445   -0.93223100919347   -1.16300604694783
H          -2.90326063707804   -1.28152317585850   -1.31407228428932
O           0.34241759303501   -0.34345687331737   -2.66786012842610
H           0.63518220370340    0.33191330724282   -2.03474116266635
H           1.27851586511719   -1.72865825840082   -2.27037464238179
H          -0.58016749268807   -0.51569246814326   -2.43569626274188
O          -2.07353775401352    0.75317293106906    0.83476316452038
H          -1.65256816003866    0.31305719697601    1.58705802036320
H          -1.58218276181818    1.58759424570331    0.68994829358100
H          -2.12448905942610   -0.20187292630822   -0.49493013178354
N           0.28202726783417   -1.41781379997259    0.18794116318799
H           0.18499000756641   -1.56101407426728    1.19857293701928
H           0.95883115826949   -2.03517673734943   -0.30549571284093
H          -0.64034354147072   -1.49549170622080   -0.28155804788283
H           0.59785874986431   -0.41523593627489    0.02831700986163
