    26
        -50.47250314  Gyration_radius:  2.48719845425 Dipole_moment: 2.883
 S           2.22666438490399    0.41465984157916   -0.11720643157831
O           1.48917794990272   -0.83009118341020   -0.01520914747689
O           1.95637059295883    1.30221835325485    1.00725057964416
O           2.05654312081730    1.08443843587904   -1.39236732861615
O           3.75976108652878    0.02673328488213   -0.02406213947784
H           4.17190748529051    0.85476523225103   -0.24531362151107
H           0.52664177654152    1.35546183169296   -1.74579095712579
O          -0.43303210327211    1.45898542290600   -1.97937005960916
H          -0.47770008047061    2.19681183279428   -2.58927476050628
O          -0.24980516182103   -1.85410394387773    1.77766195651070
H           0.50925416542588   -1.72310261419434    1.17971518520320
O          -2.09685984273329    1.08101882413400    0.15576703860130
H          -1.55778587865710    1.30495748062001   -0.62633832809005
O          -2.19793516867307   -1.65255804021146   -0.16179721029847
H          -2.32808230151211    0.14079284117202    0.04729679587270
H          -2.84707789419940   -2.28837014283362   -0.46316884319647
H          -1.50144885514968   -1.59693165340877   -0.87901664427853
O          -0.31109378476134   -1.32214892198782   -1.92665121074676
H          -1.01732820034031   -1.95797325063131    1.18589248469137
H          -0.45005680080862   -0.41688918791767   -2.24149404442313
H           0.45491165743164   -1.25475059555234   -1.32175284503669
N          -0.34422494682133    0.75199407397401    2.10300208561444
H          -0.33982734437022   -0.31075649825570    2.16687451203660
H           0.60222042040948    1.03310644363024    1.71410082847576
H          -1.08782948552144    1.01201915590863    1.39012240534926
H          -0.51336479111764    1.18971297759738    3.00112969994929
