    26
        -50.44704148  Gyration_radius:  2.69273388603 Dipole_moment: 6.638
 S           1.06893886387579    1.90977788188608   -1.91314293266097
O           0.14150030208829    2.07741546339550   -0.79887425107482
O           1.19589845903668    0.49157714600016   -2.26636650431350
O           2.33592980263396    2.56394681102580   -1.75327240654805
O           0.35813270374123    2.60304988893189   -3.15910100335206
H           1.09351708519200    2.95046019373534   -3.65439736334215
H           2.85438185912575    1.69773412657440    0.07271389025023
O           2.21229298892204    1.40502082336488    0.72946798402641
H           1.37717751818996    1.77750561715791    0.39674397917385
O           0.01934976068349   -1.19590397599039   -0.90457250467061
H           0.52882964024163   -0.53344450371713   -1.55742030792200
O          -1.00362482190897   -0.63270310654491    2.44495752985771
H          -1.23977958854646   -0.66428210682762    3.37215727185890
O          -1.72675218272127    0.42342847125136   -0.04779442750253
H          -1.18016634486239    1.18234731264543   -0.36327472097649
H          -0.79379664229561   -0.62979809851809   -0.59467482688103
H          -1.58767288593082    0.38089370355581    0.91118149350058
O           1.38176444449469   -1.05960363076008    1.19099945594919
H           0.64800568410112   -1.23689643496439   -0.04847665627589
H           1.85012010854764   -0.19874463529331    1.06673635324728
H           0.66592692113265   -0.87329945848081    1.82751846739220
N          -2.09202144262915   -2.59691854418294    0.95981749188821
H          -2.63939197546101   -3.35156209744817    1.35405980930136
H          -1.42439131728233   -1.41630172957916    2.00126150036866
H          -1.35416161637505   -3.00585542510003    0.39841383735251
H          -2.69000732400753   -2.06784369210334    0.33533886134263
