    26
        -50.46942763  Gyration_radius:  2.43986889017 Dipole_moment: 3.748
 S          -0.38061810071443   -0.80352721346381    1.53336617680570
O           0.27913158488352   -1.95892377547256    2.08428737018553
O          -0.98165056057707   -1.10647077536552    0.21206796271154
O           0.52141898429470    0.33922907161100    1.39526903499668
O          -1.54394207064102   -0.40189218317567    2.47128622072549
H          -2.00288554625914    0.37299878729611    2.05264942743987
H           2.55434381886278   -0.48932068862709    1.20915543637555
O           2.59892080424574   -1.43022747658458    1.00571413584108
H           1.86704198141478   -1.80522828091082    1.54900625608670
O           0.88067643787538    0.48566388042914   -2.66665419211360
H          -0.07296444622139    0.55735418039991   -2.79110363463856
O          -2.82876621116887    1.50983935720236    1.22089277732222
H          -3.75176203401821    1.25015506045772    1.19774573280029
O          -1.64617756330683    1.07081412121366   -1.12458832182500
H          -0.86166688862093    1.62133455452941   -0.96414864487477
H          -1.44235128475334    0.20277063301467   -0.71026963121824
H          -2.49974867169562    1.45641403509547    0.29000438120600
O           0.83897042839207    2.08103623999899   -0.47279573217302
H           1.09441438028467    1.16403857124625   -2.00131257828748
H           0.74532842749138    1.42267348985945    0.26724138459737
H           1.08905436032683    2.90834038148092   -0.06034104673319
N           1.12422435217026   -1.70855333942930   -1.16396317062084
H           1.87051578660491   -1.62057799077563   -0.41138635065256
H           0.19867059895896   -1.59609063452341   -0.64177767637537
H           1.17138641723192   -0.91257762982751   -1.85317135873623
H           1.17843501511547   -2.60927237527119   -1.62717394835589
