    26
        -50.46021229  Gyration_radius:  2.67679607394 Dipole_moment: 4.563
 S           1.13425832606429   -2.10222208198452   -0.08131627116816
O           2.16043381673182   -1.82843905538016    0.88716044543711
O           1.15350429141122   -1.24513105879352   -1.25622739783926
O          -0.20439061175155   -2.10097641154750    0.53144671717859
O           1.36291203178468   -3.56892812061992   -0.63897999229142
H           1.16011207590790   -3.44156851648998   -1.55957707154114
H          -0.09020349429404   -1.29857878389328    2.05349233671098
O          -2.92586239433835    1.19336779934378   -1.60302370104162
H          -3.14948997871034    0.64717752089954   -2.35809550958497
O           0.95635321390603    1.27005758912295   -0.58721859806359
H           1.14839697071770    0.38989225548666   -0.99001571890254
O          -0.12930567839838   -0.65145825655196    2.78836042906677
H           0.21328420910207   -1.11223813805300    3.55564410642762
O           2.04912693815765    0.70630786143994    1.72031264743151
H           1.28706270426094    0.50957492457174    2.28886411065322
H           2.35049569287353   -0.17918597569089    1.43732298739581
H           1.49405744484562    1.27149437160311    0.24660258754206
O          -0.74425236579690    2.63180819138272   -2.25272478137505
H          -0.61335306380198    3.57256195171352   -2.12631611555871
H          -0.01982168024298    2.18718665179166   -1.77681698047295
H          -2.21843006131754    1.80210261025917   -1.90875061934501
N          -1.30445092608111    0.27445622960897    0.33404063103914
H          -1.51809553949727    0.49479593010948    1.30417035519686
H          -2.08951638189342    0.50839557200559   -0.31338951883983
H          -0.44016306937285    0.81049925271698    0.01296764883645
H          -1.02266249028283   -0.74095232305711    0.29206725310646
