    26
        -50.46021191  Gyration_radius:  2.67669933946 Dipole_moment: 4.577
 S          -0.11511383495568    1.96976177204890    1.34831706615421
O          -1.18142658968306    1.56734134447214    2.22394896833378
O          -0.47429021752546    2.05663232135519   -0.05835747943178
O           1.07764530274362    1.12376142830027    1.52041976616620
O           0.32439607647824    3.43880126917494    1.75243106335222
H           0.48850619373649    3.81676233410762    0.89505547483920
H           0.59136195463049   -0.31533317967700    2.33720345225735
O           0.32943616682167   -1.23110912801448    2.56747688100614
H           0.19957606539272   -1.23072110049191    3.51697375666205
O           2.16320987632780   -0.96110486386516   -2.63568673293324
H           2.61858455045824   -0.19996933329875   -2.99870997584631
O          -1.39705657678332   -0.22162641263322   -0.93608274049451
H          -1.18086264470093    0.72005424157044   -0.73522812994027
O          -0.40838332086567   -0.82463588108972   -3.42195415405176
H           1.27023520121984   -0.96291332482330   -3.04453270435286
H          -0.93529583555614   -1.52908568346966   -3.80173771242240
H          -0.88207827728760   -0.52653790801910   -2.62463455917992
O          -2.19474031059826   -0.79175215708913    1.48822722059357
H          -1.43597896318992   -1.26129631884834    1.87103747157869
H          -2.07851259054584    0.12216580993495    1.81402482383295
H          -1.90295563923036   -0.52395365093176   -0.13806616649586
N           1.04891192074605   -0.86609917233277   -0.19131107200159
H           1.67217328525843   -0.93301170321735   -1.02633668048533
H           0.04629769738221   -0.75038490783896   -0.53548938995453
H           1.12287922910755   -1.67720233709072    0.41859683062106
H           1.23348128058408   -0.00854345818032    0.39441474219411
