    26
        -50.45796992  Gyration_radius:  2.5804997908 Dipole_moment: 5.754
 S          -0.46358111329144    1.13768989973585    2.12604888392009
O           0.65720249803671    1.75296816145596    1.46288117122359
O          -0.48753642756335   -0.31257587033607    1.92384232348543
O          -1.75109468184245    1.74372534016007    1.84227889834435
O          -0.23453648166573    1.34906010861177    3.69275984207893
H          -1.11483352925035    1.26284278356752    4.04674583701844
H          -1.61016811202115    1.40332968147301    0.30913467154740
O           2.61614057872502    0.90394394567984   -0.11241222140599
H           2.06371473740233    1.40952880942842    0.51785281237221
O           0.25052158271361   -2.17636049887822   -1.75091855660565
H           0.20765876583904   -3.05934568163928   -2.11961099191223
O          -1.54569670559446    1.25920207941942   -0.67077756843499
H          -1.88463603193317    2.06693629800275   -1.06438858747914
O           0.78954580763773    0.65963241383651   -2.07407103475485
H           2.14589095590880    0.99618447966940   -0.96782844270715
H           0.71055184250050   -0.29485921605737   -2.18500883817470
H           0.02221384554377    0.93175106658389   -1.54243125873789
O          -2.20483120330644   -1.24560259310327   -1.44437730823462
H          -2.03150175890863   -0.38306734782334   -1.01492304853647
H          -2.71626410815847   -1.05262159485475   -2.23241526932848
H          -0.68519209980289   -1.88708643189869   -1.60476547942741
N           1.46812359014260   -1.32213030275356    0.57326906849655
H           1.07286737337843   -1.75340441653286   -0.28073151839620
H           2.00007186328493   -1.99434335768980    1.11336744675635
H           2.06832438364827   -0.46412101172483    0.29669186360168
H           0.65704441861689   -0.93127671438588    1.15978731528972
