    26
        -50.45796983  Gyration_radius:  2.58070335389 Dipole_moment: 5.749
 S          -0.26267566692230    2.09593557297759    1.25270644474460
O           0.79633189398514    1.82444637381863    0.27827990437434
O          -0.50312592462904    0.96527270039077    2.11198500635435
O          -1.44701554965930    2.64921678629200    0.62284304162796
O           0.30167035215794    3.26266474944412    2.18647925694780
H           0.10682587853819    4.04732523310824    1.68245075462767
H          -1.72660208967792    1.28808948099739   -0.12234342837617
O           0.43662131056678   -1.51035768362535    2.28050048429901
H           0.03498365936599   -0.63825412904926    2.47068284277104
O           1.14003865838465   -1.75307458882405   -1.86873506676457
H           1.67349428176531   -2.10247497181939   -2.58343705331672
O          -1.97561773976882    0.43879717573791   -0.57165060895615
H          -2.92938388658160    0.37759544727239   -0.47788019201414
O          -0.60241902934530   -0.02566360679991   -2.85324167342132
H           0.53973338007470   -1.07615852386786   -2.27128148182926
H          -1.30597354015686   -0.36319688921952   -3.41076176534231
H          -1.03453856890034    0.29834767395391   -2.03671893549481
O          -0.99239403494430   -2.09034121724763    0.07471077139022
H          -0.31568278711971   -2.21495853289007   -0.60066868850022
H          -0.19482170196808   -1.93286282586721    1.66064518046367
H          -1.34661244206967   -1.19534986949639   -0.06333011695328
N           1.95158217705587   -0.47921237765823    0.44065368322730
H           1.77023557957382   -0.98662287598421   -0.44319714195531
H           2.94514207890069   -0.39780093820409    0.62167898973788
H           1.50518571367693    0.49544158704425    0.36750672767609
H           1.43501801771234   -0.97680375047613    1.25212305468808
