    26
        -50.46162534  Gyration_radius:  2.55251549035 Dipole_moment: 4.690
 S           0.94873846633674    2.03334419745970    0.25626063810465
O           1.89222173452234    1.34935177524592   -0.59624463576305
O           0.70402403606625    1.27488587075779    1.48608532555610
O          -0.29173724752099    2.40985884876100   -0.39899049001156
O           1.64151041009245    3.39107816925103    0.69968609458102
H           0.94207988306275    3.90465193340602    1.09435693819413
H          -1.56519375004714    1.51633526127073    0.40397226517180
O          -0.48373692556081   -2.81101835203265    1.79682765171577
H          -0.58274071041099   -3.75742134283210    1.68868098979828
O          -0.05059233719932   -1.25333896791607   -1.79465905179703
H           0.18253707434931   -1.85309139223245   -2.50488022660948
O          -1.99364294062828    0.92066557243209    1.04503536085330
H          -1.35342213169361    0.86558789497770    1.76291938381027
O           0.32215801662034    1.15121335483409   -2.68865832486277
H          -0.29832896008908    1.73098132475780   -2.22347666160448
H           1.13443003911695    1.25626918943205   -2.15431033817875
H           0.01322721206896   -0.33125876473472   -2.18561096827702
O          -2.09538499604131   -1.60551855849589    0.13196943816483
H          -2.22360577467064   -0.69380968202270    0.47386614532271
H          -1.55543656708180   -1.50425431551811   -0.66440867511342
H          -1.21256871647083   -2.39137630978052    1.25771549282879
N           1.20175028599354   -1.13544481652241    0.62532451610967
H           0.81926708150843   -1.14992719680223   -0.34765712822722
H           1.01676656787828   -0.16830394332442    1.03484223049881
H           0.68325405616750   -1.85965356652870    1.19146391879172
H           2.20442620367511   -1.28980618383483    0.60989010094120
