    26
        -50.46365774  Gyration_radius:  2.44726385888 Dipole_moment: 8.573
 S           1.84546569689062   -1.47905105251465   -0.57327572688695
O           3.19166909423284   -1.93620772329453   -0.66886548233910
O           1.29518478209731   -1.44121223532597    0.77647944046001
O           0.95290939932468   -2.56118062335852   -1.36595354757692
O           1.55181026192249   -0.22644571413030   -1.27554885990892
H           0.05447631670102   -0.36207623847581   -1.70504264477999
H           1.53908037090882   -3.30620067286749   -1.30638041569567
O           1.30647190616194    2.11827855609779   -0.07312206671700
H           1.59305822967022    1.34058802274189   -0.59859229970601
O          -1.84430107024657    0.63295475851194    1.82594885608672
H          -2.57068921909382    0.50890721164704    2.43675720994885
O          -0.92081351382617   -0.38493916197272   -1.92185008949502
H          -0.99049378584160   -0.89901834237062   -2.72697405151240
O           0.99331933830683    0.82644362777695    2.18713215286840
H           1.21913744797646   -0.04336364995060    1.80283309385730
H           1.33936684594145    1.79439836397534    0.86517520344115
H           0.03496820101665    0.80848119604552    2.31617752789898
O          -1.30905079849272   -1.55457675846764    0.56207736241047
H          -1.37394818907076   -1.33112608472243   -0.37982395629790
H          -0.34116592126378   -1.64209385990942    0.72067698363375
H          -1.67201947096338   -0.26448506625722    1.40181445345618
N          -1.21064872821943    1.89860937554852   -0.47010263275274
H          -1.27668286999602    1.12857388445818   -1.15858377377629
H          -1.70216799625762    2.72530565041987   -0.78865168168496
H          -1.58313374658133    1.55709062052452    0.44069755376162
H          -0.12180257129804    2.09234590587366   -0.32300261869845
