    26
        -50.45124349  Gyration_radius:  2.85003360644 Dipole_moment: 7.274
 S           2.07885432565060   -2.26884037879152    0.05065374212759
O           0.98932045486545   -2.31390617109944    1.01976819403373
O           3.18829918818881   -3.12626723378444    0.31674653669927
O           2.70180737054030   -0.75355523850795    0.23803964774030
O           1.57878285309275   -2.26620322412493   -1.31506683732389
H           0.59274940854399   -1.26449342755775   -1.95233639212651
H           3.57875800686937   -1.01252250496378    0.50073333107942
O          -3.33170557614471   -0.10174890370768    1.17466527805321
H          -4.14698708749159   -0.25195038145152    0.69492972736132
O           0.26466301015064    1.97113340149127    0.87282537091737
H           0.91757774116916    2.09600183698653    1.56299251512135
O          -0.07861842724259   -0.59089577445362   -2.27642732608588
H          -0.38485887057186   -0.91569982383433   -3.12364470936751
O           1.61880260748938    1.32012932962753   -1.25287644194358
H           1.00791008787744    0.82881252881262   -1.82716890690477
H           0.77862302390330    1.87546778516830    0.02068444804399
H           2.16310175174252    0.63689600902450   -0.82972928853149
O          -2.47120505879858    2.46278359430405    0.88101588047881
H          -2.65505397026149    3.15456894225741    1.51810360125824
H          -1.50363834525842    2.39840467300934    0.81298115756577
H          -3.13762694953179    0.85491498217180    1.10621455868224
N          -0.76500080416445   -0.55165749098312    0.36572872600954
H          -1.73051890199280   -0.65766947851975    0.72366703316960
H          -0.75759987916635   -0.54814519329490   -0.66859305703917
H          -0.39312071955908    0.35698287300451    0.69486514459148
H          -0.10331523989994   -1.33254072082873    0.69122808635372
