    26
        -50.46797328  Gyration_radius:  2.47233822889 Dipole_moment: 6.421
 S          -0.44342892530970   -1.02207844923197    0.20674526208198
O          -0.89333636558588   -0.62021340988290   -1.11288891368322
O          -1.14024388187458   -0.27583167205763    1.26291392387845
O          -0.78923977884111   -2.51022329888373    0.42520263543344
O           1.00128165448949   -0.85533786412200    0.36768659600721
O          -2.24019306147835    2.05656334343601    0.56080362579659
H          -3.10880988296980    2.02208200838431    0.15770464113520
H          -1.98883364659527    1.12655452691161    0.74448723260359
O           2.19075061650796   -2.44561204920918   -1.38486974937928
H           1.82604908293007   -1.80162845620451   -0.74060577016645
H           2.77460296993888   -3.02088845145446   -0.88795686343439
O           1.82741277730151    1.65390760396722    0.28944733304561
H           1.76881520237570    0.67364644296723    0.27515010639989
H           0.94077578855718    1.87265212479818    1.42180335190402
O          -0.33406256168844   -3.08295543553326   -2.02195023227040
H          -0.65125861697917   -2.18327774259009   -2.19440007550395
H           0.64334772901912   -3.01071349788444   -2.00986246700228
H          -0.66409040313726   -2.90898980242651   -0.48871320934932
O          -0.20471873452273    1.95431047636828   -1.34313343253291
H          -0.40974942770198    1.00532433399975   -1.45396936744637
H          -0.93481312327245    2.29141822376060   -0.80159612018344
H           1.23865632172208    1.92470262699420   -0.46105425148511
N           0.10805181075303    1.82948868965819    2.16183137383249
H          -0.59313646635129    2.53705446746889    1.94174085124119
H           0.42280734513131    1.90157914257559    3.12285962855158
H          -0.34663645240897    0.88846612818974    1.96262389052877
