    26
        -50.47044460  Gyration_radius:  2.4660097225 Dipole_moment: 2.887
 S           0.15404089437989   -1.45918742785008   -0.99089067731805
O          -1.04032272967116   -0.67420281691534   -1.25096454673174
O          -0.09206301710835   -2.71925015771807   -0.34386342898013
O           1.17358218353137   -0.64959818583281   -0.32428596952523
O           0.79333949558167   -1.80646622290178   -2.40968885172044
H           0.47614816898503   -2.68626791315975   -2.58678455074271
H           1.52670051625085   -0.92527567398434    1.34171043377551
O           1.52173764004215   -0.94259510016718    2.31855865487089
H           2.09689155448419   -1.66416456482459    2.57706036133946
O           0.21662388599131    3.31977031241814   -0.97463044931767
H          -0.58171548863612    3.76682512109976   -1.26070567204875
O          -2.23739881534175    0.34749074044667    0.94045300830659
H          -2.11946486445079    0.02135608549338    0.03091919448452
O           0.43190968857188    1.13639303635605   -2.48767218700120
H           1.25480531806249    0.64278628367710   -2.49326273098406
H           0.37241035228246    2.59968244169464   -1.63087983966691
H          -0.22709696300912    0.51589173021132   -2.11822809155419
O          -1.09871689859569   -1.79347336235269    2.00104102001795
H          -0.86378864881519   -2.28905975301708    1.19787890856108
H          -0.25109185483960   -1.49759553315561    2.37254679474920
H          -2.03465882091619   -0.44384319417464    1.49293077013932
N           0.11443346753876    1.46303633952398    0.94088964483548
H           0.60642098052625    0.69890580307305    0.42149628569818
H           0.15850719748896    2.32706805892500    0.34818469541243
H          -0.90601623191881    1.12648111376072    1.04074402227808
H           0.55478299958507    1.58529280935599    1.84744321114997
