    26
        -50.47044457  Gyration_radius:  2.46612942524 Dipole_moment: 2.881
 S           0.44055133477139   -1.54075344799665    0.75020348820224
O           1.27745829595158   -2.42375954630321   -0.01593206591462
O          -0.93411490513625   -1.46406853800343    0.28679626197026
O           1.00651556979979   -0.20312052829335    0.92293985181204
O           0.39502213942102   -2.14166342551831    2.22625579726683
H           0.57776325845797   -3.06653903742328    2.09506800807377
H           2.19381227846699    0.36559166590102   -0.19170644114384
O           2.66624490296477    0.73592932528525   -0.96255248497954
H           3.58102422166868    0.46531413188247   -0.87198906614026
O          -1.27011469464988   -0.21940401694819   -2.08313121576294
H          -1.44265144509824   -0.80451376572631   -1.32454854451901
O          -2.15702150310953    2.44758841290677    1.17438849010828
H          -3.08552122879440    2.38691903842613    0.94367255736030
O          -1.51840166401619    0.12464282430842    2.31431383458158
H          -1.96367949452234    1.65291364532108    1.72616950600560
H          -0.68421561541505    0.03981486425924    2.78092849760129
H          -1.44996603960320   -0.50250279909532    1.56746767115196
O           1.19604624556374   -1.12556474875252   -2.39834511273687
H          -0.43065102985660   -0.57622170378250   -2.45839243361919
H           1.78832189584376   -0.39868216983702   -2.14351226803978
H           1.24732883556907   -1.76216703453017   -1.66479882008598
N          -0.28322855113113    1.63291555929306   -0.54389718297105
H           0.38079993430327    2.26958850556771   -0.97324239911800
H          -1.01516059555051    2.12909529633206    0.01999623103366
H          -0.74505684189900    0.99081526178414   -1.27819449645818
H           0.22889469599109    0.98783221095199    0.10204231629250
