    26
        -50.45339382  Gyration_radius:  2.6210665334 Dipole_moment: 6.429
 S           0.59791326550961    2.13178839587389    0.88918484666942
O           1.06985515891591    1.25888724912737    1.96724287829201
O          -0.58049330822610    1.60297322902737    0.23952735885271
O           1.66956982001666    2.44782344069041   -0.03837890760780
O           0.17261908826746    3.49582273713699    1.56968533984120
H           1.01768763447421    3.86989846472961    1.79769375349635
H           2.18702357368884    1.23753697741601   -1.04429656182079
O           2.31032923079237    0.35011986997517   -1.46158217450697
H           1.49974394413697    0.19486723279032   -1.96431256884854
O          -0.19855642648369   -2.30405884705179   -0.24990403529866
H          -0.04215169347370   -3.03543962605241   -0.84922964495102
O          -2.97545964233316    0.31073539674589   -0.88989866208035
H          -2.51582480477460    1.02171283755604   -0.42753010241141
O          -0.46723096181177   -0.16121561244663   -1.67519010009801
H          -0.32993576348852   -1.49008106461910   -0.83297510508111
H          -1.43211146600972   -0.13240678876390   -1.83608976299142
H          -0.38392115482794    0.54381561474191   -0.98703073595580
O          -2.75687779411721   -1.88714609916932    0.82277048370116
H          -3.06512650421368   -0.39654003609745   -0.22931078131091
H          -3.26405368592585   -2.68237136711782    0.65394637777055
H          -1.83408268776269   -2.07980187957439    0.59028553167853
N           1.87662717057314   -0.88734009590637    0.80533260116876
H           1.09272583736316   -1.54349985528958    0.62316517652181
H           2.64236180366614   -1.34622181512542    1.28641150622820
H           2.18429881184687   -0.47777164061161   -0.13662212604384
H           1.52507054417167   -0.04208668796194    1.37710539478014
