    26
        -50.46846767  Gyration_radius:  2.39942841992 Dipole_moment: 5.642
 S          -1.27335988018028   -1.27496374641332   -0.25440323550482
O          -1.75358562341885    0.05934540192457    0.18029981698826
O          -1.92771271743465   -2.33848933505216    0.45836359607497
O           0.17809217005710   -1.32620138609702   -0.12024894598437
O          -1.61101467315299   -1.38959853444368   -1.77165454043090
H          -1.03004930994886   -0.73554925015988   -2.22946114586311
H           0.62716335549124   -2.63192313539369    1.85863492902085
O          -0.14661760649621    0.52484563010590   -2.90435966866397
H          -0.60295529083145    0.79763968956813   -3.70222685858233
O          -0.11693328610092   -2.33527151478872    2.39126061598475
H          -0.89200917246036   -2.46141278640960    1.79564616702044
O           1.68542347925680    1.68657145795006    0.73146439431732
H           2.51659125026879    2.08912081617826    0.98597888550401
O           2.10280514558962    0.03189654242705   -1.22882072935856
H           1.90162640592114    1.06522452749707   -0.02706645695761
H           1.47252248998877   -0.61648858611077   -0.83988818533836
H           1.68450740183891    0.28676991310238   -2.05954922046605
O          -0.60771637572858    2.16541102354992   -0.92654354514401
H           0.17458657342560    2.24032332475104   -0.36287484985607
H          -0.30845533031729    1.24057890449511   -2.22723297351228
H          -1.16850729357387    1.47763360091964   -0.50552790577577
N          -0.16566452708192    0.30703242904846    2.18554411322013
H          -0.91945545446903    0.29638436768488    1.41907149939891
H          -0.00493995004321   -0.72593613674061    2.37796450354225
H           0.66676059948415    0.76812940751548    1.76053084971967
H          -0.48110238008490    0.79892738489278    3.01509888064517
