    26
        -50.45352383  Gyration_radius:  2.57397418827 Dipole_moment: 4.219
 S          -0.27450018666764    0.22882582476194   -1.36491311273485
O          -1.63742233925789   -0.37214808600431   -1.61824450548850
O           0.60668910801816   -0.73311151003300   -0.74931448349860
O          -0.38658707632096    1.44366447489910   -0.57533362027779
O           0.21503146200630    0.58558244114677   -2.76570268806610
H           0.83428747780542    1.39908802977813   -2.64606519478022
H          -0.88615869863144    1.21377807876386    0.96371550621707
O          -1.25620662199721    0.95153972480412    1.83992461321770
H          -1.58738406722300    1.75421576881083    2.24675532707307
O          -1.68576457831988   -3.00232201861077    1.52503878939839
H          -1.95836680763643   -3.37901825475578    2.36286292535292
O           1.68062943076181    2.50186945932214   -2.05566056573282
H           1.04371819654371    2.74232459325279   -1.37178986532040
O          -2.80896131285527   -0.83904500965842    0.51769211602338
H          -2.38482648902819   -0.19859260359581    1.12419246047261
H          -2.18732571242573   -0.59834190778477   -0.72490454091428
H          -2.50302120573119   -1.73408671113448    0.81660446736144
O           0.37819296084086   -1.35685269397783    1.87347803095516
H          -0.83069419620861   -2.53671753422519    1.68798601479724
H           0.59153180143259   -1.23018141035518    0.93178959515555
H          -0.07482491505753   -0.54638193669072    2.14150221790431
N           3.11480398968076    0.68012285772299   -0.76062494310001
H           3.45248348204856    0.83025140584042    0.18205241125505
H           2.36868763154243    1.94175997983543   -1.59533174088410
H           3.85097657890315    0.21655568013232   -1.27839832254038
H           2.32501209777894    0.03722134775730   -0.70731088183913
