    26
        -50.45352394  Gyration_radius:  2.57390365597 Dipole_moment: 4.221
 S           0.78250906551810    1.12934696378497   -0.32162990314512
O          -0.03973711509583    1.93724099702256   -1.29834901747107
O           0.90898862118225   -0.23843385287810   -0.76228774149591
O           0.22457981015332    1.21765267378202    1.01731774727378
O           2.13895624060447    1.82832326763873   -0.34586351315844
H           2.54446161393425    1.68392731805275    0.58922746028511
H          -1.22771044494215    0.48955569400980    1.20058369616928
O           2.79611956942316    1.21589327245139    2.00291091878657
H           1.87942558745180    1.31036517947651    2.28898873493910
O          -2.45721234295614   -1.08904450674064   -2.63717893923959
H          -3.26458958268688   -1.58890788704663   -2.76558704024729
O          -2.12303060329753    0.07688999568187    1.16376356615402
H          -2.59216239100755    0.37458821928319    1.94524865536941
O          -1.14000117307111   -1.98584662830112   -0.50421340020166
H          -1.59715848435065   -1.51653929472253    0.20620410840547
H          -1.93837323383746   -1.56204342950961   -1.94316531288268
H          -0.31760981730380   -1.48561029551089   -0.65194540523596
O          -2.40297608713626    1.18312775113199   -1.29912429579044
H          -1.07242149088654    1.64865083209273   -1.34194010170712
H          -2.45458163652058    0.42150104174884   -1.93262772323285
H          -2.48965415688374    0.79098083587658   -0.40664320400330
N           2.77964454361878   -1.29933279000120    1.15123663956178
H           2.14274894698809   -1.07877003927033    0.38594994578338
H           2.36337291032416   -2.04785839862147    1.69116864795862
H           3.63473115996184   -1.65605613166496    0.74328411889740
H           2.92168051079170    0.24039919223759    1.82467136821880
