    26
        -50.45406822  Gyration_radius:  2.52405958672 Dipole_moment: 5.862
 S           0.57177999075628   -1.65644915740270    1.46958985364797
O          -0.50778614850535   -1.73555399564997    2.41671776481786
O           1.66191300841765   -0.77117319073629    1.90160537447723
O           0.18026856995210   -1.34961661563019    0.10961091542971
O           1.21368954666034   -3.11954927171549    1.41682957262921
H           0.98111720832863   -3.46611703402355    2.27232696409337
H           0.88808745223649   -0.88115000784307   -1.21587679557407
O          -2.80237690339613   -0.39147029633120   -1.18637689455401
H          -3.71702953446869   -0.10543817825801   -1.18362906298400
O          -0.34112868323164    2.24964347715775    0.20347249862011
H          -0.69039018482559    3.14093305402149    0.23212192022162
O           1.41055655225246   -0.46050108078826   -1.95352109446090
H           1.72888715488186   -1.18272347411201   -2.49618775852776
O          -2.03985137741090    0.18578305841037    1.30977667528644
H          -1.38660788204638    0.87414992235063    1.12751663217079
H          -2.50171090513837   -0.33182117215024   -0.24806229605405
H          -1.56178602265113   -0.53947918585821    1.74976673158038
O          -0.87531874939801    1.20655191920174   -2.09031162281538
H          -0.59975994309288    1.87162016608366   -0.69918938441985
H          -0.11593554405347    0.62895931341571   -2.25296821258848
H          -1.61737898480227    0.59514009861880   -1.86791064085197
N           2.05172370791242    1.07160792511369    0.18731672622757
H           2.89915407779718    1.60751740363985    0.33582540566748
H           1.93604975182402    0.28934468360327    0.94301481152963
H           1.19309760389127    1.66802289048419    0.25542206928576
H           2.04073625811996    0.60176876841425   -0.73688012285358
