    26
        -50.46365782  Gyration_radius:  2.44722700432 Dipole_moment: 8.571
 S           0.63779794733696    2.28373276070233   -0.54647124395684
O           1.15527775915856    3.36110581939768   -1.32223724543522
O          -0.60890162248798    1.70708895829077   -1.03585196232564
O           0.27982014961774    2.90764054185856    0.89540837273430
O           1.59439797563269    1.22190290419372   -0.22150012319524
H           1.11132071881681    0.67395316107665    1.16106318699721
H           0.17429358509059    3.81632812604728    0.63963967345280
O           0.78129268916167    0.24900441279477    2.00319589886519
H           1.09910727371624    0.80932900671430    2.71202907443748
O           1.68487596483288   -1.11757678592585   -1.45625256806252
H           1.85003367048820   -0.21388421661620   -1.11137624281354
O          -1.95348758407236   -1.82163326197894   -0.03689743961827
H          -2.81769714257485   -2.20290355169040    0.11762273672501
O          -0.73443624429365   -0.63617856726122   -2.34528080405787
H           0.85946395931982   -1.01562278180502   -1.99910215394584
H          -1.30863212774767   -1.12662876130416   -1.74098508421836
H          -0.74665932027964    0.28629435631557   -2.02237313324149
O          -1.78322690468963    0.54184900923771    0.99012405253348
H          -1.01769861933878    0.50959985717154    1.58528490534444
H          -1.46575632525505    1.06837775983174    0.22098811254095
H          -1.97626266696873   -0.89471724500472    0.35705819086530
N           0.63742495854433   -2.11056336473885    0.65546554780802
H           1.15453122924839   -1.75928009825681   -0.26850461941662
H           1.01586295616795   -2.98891729160920    0.98978677550857
H           0.75208630364457   -1.35665701611599    1.35540043309041
H          -0.37482858306438   -2.19164375131819    0.42376566937188
