    26
        -50.46365779  Gyration_radius:  2.4472131332 Dipole_moment: 8.572
 S           0.08271966711407   -2.43081053582989   -0.07437473752800
O          -0.30059759158879   -3.75535442527511   -0.43337948479239
O           0.61381922905968   -1.61995328201050   -1.16378917719761
O           1.30003002029664   -2.58898271710139    0.96951393067485
O          -0.91149198886101   -1.66892725377999    0.68670299377988
H          -0.06078946140285   -0.71516547187699    1.58817987327258
H           1.59986241114824   -3.45366707980434    0.71501726352204
O           0.45166587005138   -0.03904854250643    2.11615736272169
H           0.75761641868544   -0.50416659309775    2.89556558522028
O           0.84404117218723    2.27902815646043   -1.10925728610230
H           1.45910178323377    2.93077211458905   -1.44545722780447
O          -2.45680122825128    0.20758986535899   -0.36009838156629
H          -2.08212609009275   -0.60683702897634    0.03893080312437
O           2.09255851930838    0.25652586065745   -0.09899669137557
H           1.40016234065129    1.51136378726258   -0.76829404751673
H           1.76532538433949    0.18067922182106    0.81124051798384
H           1.66416779849232   -0.49459720579777   -0.56999170948483
O          -0.79954088496336    0.30909421364743   -2.38932218933122
H          -2.03117246168791    0.24843013741207   -1.25654344704658
H          -0.23516775148679    1.06983932408653   -2.19404347136513
H          -0.28811146642507   -0.47298775088950   -2.10263879213901
N          -0.97240757569930    1.90356368304691    0.84915111433274
H          -0.44065913673928    1.32029805222170    1.51867914057067
H          -1.43652557529555    2.67446722094586    1.31477408876817
H          -0.31625951662900    2.23837907250494    0.11273244471971
H          -1.69941988542909    1.22046718692184    0.34954154456548
