    26
        -50.46365776  Gyration_radius:  2.44723767141 Dipole_moment: 8.571
 S           0.75889078565052    2.30033069631540    0.23292911663647
O           1.50269606242214    3.48129981700287   -0.05403792249454
O          -0.22614334967585    1.92526509409169   -0.77464122762825
O          -0.09444595090415    2.62516980011811    1.56063977519315
O           1.55302762807207    1.13252241497301    0.62508059000260
H           0.61872151779863    0.33631766543332    1.59377482812284
H          -0.11575820879764    3.57243418176633    1.49281279384369
O           0.01723711096779   -0.23490578979376    2.15108840667853
H           0.05437036211875    0.14075949747301    3.03140529914849
O           2.10672239792143   -0.89181251010953   -0.98789454823944
H           2.12710127051014   -0.09519456113665   -0.41529531658182
O          -1.78832836231312   -1.63839485486117   -1.11965583221711
H          -2.64574330547931   -1.98615119938735   -1.36464294861501
O           0.15302070589597   -0.07180715722256   -2.53227374073664
H           1.52563956648342   -0.62186408757673   -1.74680370572404
H          -0.59127174859176   -0.64059418127728   -2.29154687920061
H           0.01449889298175    0.75940004514246   -2.03709190368448
O          -2.02600164397392    0.43552201388671    0.40091885270278
H          -1.46406622604838    1.09173044695713   -0.07153218223208
H          -1.96222990444765   -0.81728878876248   -0.56253938148514
H          -1.52028618146815    0.22637324147904    1.20207593059777
N           0.39262406343744   -2.23942657995748    0.34929496460705
H          -0.47061392113664   -2.20181093317114   -0.23242036017604
H           1.19872591552698   -1.73463466013246   -0.23382018418503
H           0.24149983076642   -1.66123911641699    1.19434265617879
H           0.64011271227196   -3.19200049483583    0.58983290950801
