    26
        -50.46365780  Gyration_radius:  2.44718486666 Dipole_moment: 8.571
 S          -1.73581666288555    1.23175388626567    1.17932670021493
O          -1.80458748521201    1.01494597756335   -0.26104433685865
O          -2.98708078260437    1.46607918651621    1.81938308802005
O          -0.88265921219063    2.58615605952461    1.36456225557382
O          -0.88582660279052    0.21481715647820    1.80506212314864
H           0.57310744181801    0.68646611678743    1.49648683051920
H          -1.60030454971386    3.19545937234423    1.49141535511488
O          -0.60495604307859   -2.24978686170325    0.88241230985923
H          -0.82531792265646   -1.44170453053734    1.39366327297188
O           1.51264662877440    0.91768934280259    1.24696344358448
H           1.78267387860764    1.59201937106802    1.87128840067435
O           1.01026325206934   -0.67126590159618   -2.38024029738445
H           1.36279013078712   -0.55396624979943   -3.26231603722156
O          -1.58162146179680   -1.40840524002904   -1.40083512540062
H          -1.82847353720160   -0.52917614265736   -1.05238817384098
H          -0.79954499915713   -1.25624085449682   -1.94908896084060
H          -1.10213558353336   -2.13311647274810    0.03059311666473
O           0.54071574875309    1.60618482776989   -1.25670044263908
H           1.04302321346606    1.59236061834443   -0.42674558642848
H           0.81982645694440    0.25172474916596   -2.02430160888585
H          -0.39515255375489    1.49567775474008   -0.97122200606445
N           1.71412424196064   -1.53162731896847    0.07745211806185
H           0.74493810503970   -1.93235912368279    0.45818551657646
H           1.87275295412163   -0.63782687763086    0.57458691657715
H           2.47699719391919   -2.18113030814965    0.22799199265254
H           1.57961816032712   -1.32472853737026   -0.93449086464817
