    26
        -50.45454423  Gyration_radius:  2.42331273636 Dipole_moment: 8.702
 S           0.33328502370897    2.22146780212890    0.78760740920883
O           0.79635475725255    1.40160565074655   -0.37177819171362
O           1.44069479530774    2.81839631872300    1.46460416765766
O          -0.31703742612652    1.15419914324002    1.78547480319747
O          -0.77492724676605    3.05152120293482    0.39839153924742
H          -1.70075189048130    1.78594276205014    0.03463618634161
H           0.36174120718290    0.54163541261480    2.08887372778473
O           0.83017326043599   -1.32604885357232    2.14762236963475
H           0.67539435402554   -1.76286696378292    2.98547207915407
O           0.14604251109087   -1.85919574162729   -1.86630753702758
H           0.11724365051800   -2.39473332763903   -2.65932260526324
O          -2.28319629712297    1.01119914376174   -0.17373926567398
H          -3.10930975763271    1.18896310511352    0.27904094840425
O          -0.71268198531977    0.52200308111456   -2.35654725313301
H          -0.20776752020723   -0.94849578745092   -2.12695674610770
H          -1.56507588159579    0.63720027981161   -1.91131382847941
H          -0.09655786897592    1.00889557094467   -1.76799714433013
O          -1.24509994599635   -1.44581094431800    0.56729794506913
H          -1.59562306108565   -0.54439212643340    0.41889339486957
H          -0.90322969664415   -1.73912145618657   -0.28902450855536
H          -0.01914188421902   -1.40986696878132    1.62403876531037
N           2.00240068992107   -0.80794035475931   -0.21259205263144
H           1.44975743737443   -1.36825615269234   -0.89599146078130
H           1.55625483820028    0.20850326456478   -0.25037383216525
H           1.83241863071161   -1.16163611958891    0.74244487205808
H           2.98863933644342   -0.78316792091799   -0.44245378207671
