    26
        -50.46254369  Gyration_radius:  2.49151445496 Dipole_moment: 7.194
 S          -0.39269543105665   -0.96333752937286   -2.13416105377852
O          -0.44123130015327   -2.28612682333610   -1.50467175853884
O           0.94045135770463   -0.50677211662998   -2.40350320005722
O          -1.18782870959453   -0.01339632447118   -1.35474173772718
O          -1.13225081150905   -1.12412584156833   -3.52391953217280
H          -1.96352179407723   -1.50386247286499   -3.25926005503361
H          -1.96330301250391   -0.08480490661255    0.17291192574523
O          -0.29549848574285    2.42074675966040   -0.59758459985589
H          -0.68761797275982    1.62995206163115   -1.01278379195081
O          -2.10390978840976   -0.22601992589515    1.13390090689412
H          -1.72195078686221    0.55097158138285    1.56842866364133
O           1.81696969140648    0.00991587266868    1.44011440904780
H           2.69921129939787   -0.09967612923143    1.79641575121440
O           2.08100201833831    1.22572533667375   -0.76379232160735
H           1.81973891126297    0.58480131209620   -1.45761172995509
H           1.33703906595370    1.87152359750958   -0.75924687524510
H           1.94815169379159    0.48765751659764    0.53515479348063
O          -0.27973085566263    1.62852191777196    2.13131527114585
H           0.50964739885169    1.07584996663102    1.96631558399435
H          -0.02362075402323    2.30524665452074    2.75890745527204
H          -0.46111573793769    2.32135169527279    0.35064548802773
N          -0.08295797799336   -1.88171411683941    1.00645064472672
H           0.74462664178434   -1.26931019396912    1.16470748811006
H          -0.95948551461807   -1.30632793115423    1.21732760056315
H          -0.16493901954694   -2.12278763637090   -0.04001952466250
H          -0.03518012606895   -2.72400231400421    1.56870019868654
