    26
        -50.46053983  Gyration_radius:  2.59427062859 Dipole_moment: 3.608
 S           1.37354529208165    1.55468244360080   -0.02356963649360
O          -0.00300914770719    1.26305745411715    0.33305339201149
O           1.95421307776904    0.49556125341361   -0.83579505438612
O           2.19725171905282    1.90338800236849    1.11266382266441
O           1.30732546589265    2.85544540131062   -0.94705106629452
H           2.18493909130452    3.22283924191870   -0.89362140973907
H           1.64335034245113    0.78630649472522    2.23972428931642
O          -0.78218062560762   -2.77176629359132    0.18454999298489
H          -1.10882016025088   -3.40241805460941    0.82794886848867
O           1.17465635409957    0.02657818080156    2.65313072948511
H           0.24524412998625    0.27408529956355    2.64389183627370
O          -3.16604551718999   -0.04536234882528   -1.70942358286777
H          -3.09105979292478   -0.81769652931291   -2.27261858553215
O          -0.88121275976258    1.33668829243335   -2.19098307363753
H          -0.63546070091707    2.20185584062419   -2.52188211377657
H          -0.52652708614608    1.29594390544361   -1.28462732510493
H          -2.42718322423831    0.54114784046179   -1.96529391914495
O          -2.00749342177981   -0.54679091460067    0.68378591354084
H          -2.59503797337783   -0.36480105361566   -0.08025169646239
H          -1.31174095665571   -1.93078861450609    0.33630687646263
H          -1.32676363357673    0.14421675136342    0.63273605993500
N           1.56742446088108   -1.63129830357798    0.61438227757548
H           0.67662334583301   -2.15794850130557    0.38065127543316
H           1.73710303706136   -0.86368272602285   -0.10132838959333
H           1.43475007180937   -1.11386117691042    1.52756402374188
H           2.36610862190184   -2.25538188527089    0.65605647513173
