    26
        -50.46053979  Gyration_radius:  2.59432504439 Dipole_moment: 3.611
 S          -1.68935639532137    0.64574215402128   -1.01744153162404
O          -0.55367396281747    1.05546790196555   -1.83063680941219
O          -1.26789755848580    0.14029939931049    0.27636076957656
O          -2.58415046593385   -0.24909808356685   -1.71715449010696
O          -2.52816676073499    1.96766594742069   -0.70449505612283
H          -3.05614569966718    2.09818478503440   -1.48695081249915
H          -1.85732806879002   -1.72642432143154   -1.37879136483153
O           1.30461845835267    1.41600884006217    3.03974585388618
H           2.19481798852183    1.67018054985796    2.79013778645934
O           2.61763214610659   -1.19843156084714    0.18650553675587
H           3.02878068352265   -2.03966463487400    0.39056986094868
O          -1.21737713198721   -2.40644172797762   -1.06940886930487
H          -1.24788302168272   -2.35704943338139   -0.10934124783872
O           0.66435388583797   -0.93573342447530    1.86492755308109
H           1.90616900102701   -1.06815527527195    0.88478471373188
H           0.89360205044839   -0.18821970505590    2.45726487148232
H          -0.08594954456956   -0.60652957656883    1.34318089801308
O          -0.24960169612397    2.47606599975084    1.08445599748311
H          -0.61051790062497    1.63417877544319    0.75267943961047
H          -0.97027800769033    3.10460861342523    1.02119430873912
H           0.71117975122238    1.90185250014442    2.43367590590592
N           0.94197604212419   -1.07482860147817   -1.85875037817171
H           0.17076239486490   -1.74926410794221   -1.59488181527375
H           1.68855616507561   -1.08901207487193   -1.10511793067342
H           1.33100987738185   -1.29630992123394   -2.76909191354852
H           0.46486777992866   -0.12509301742999   -1.88342128626556
