    26
        -50.46053954  Gyration_radius:  2.59458867634 Dipole_moment: 3.616
 S           1.56333333282877    1.16500537050788   -0.71019857503536
O           0.64391429664797    1.06001992722634    0.40818262147091
O           1.14679261742753    0.33197241287257   -1.82888628508573
O           2.94397416834734    0.95094202892750   -0.33780831686359
O           1.45908059772282    2.67943698459788   -1.20472712593674
H           2.25971804235387    2.81682839616025   -1.70287989846836
H           2.77172273427941   -0.33204043683942    0.73375578664746
O          -1.47389228266657   -2.46455835674838    0.29690980037131
H          -1.57780270267392   -3.18980221828345    0.91464091396440
O           2.38589000249740   -1.07279315863502    1.25363381476383
H           1.78316328448986   -0.65248168803656    1.87421551841083
O          -3.32576782792562    1.15382129450863    0.74436924502028
H          -3.87106378703837    0.60895135821452    0.17417451175648
O          -1.41599940867291    2.13047129492242   -0.91744086321109
H          -0.65214396641316    1.72501349368982   -0.46873938521315
H          -2.71465081529558    1.63053533674895    0.14872020635169
H          -1.11270731711295    2.99168185598082   -1.20866581204400
O          -1.28797105642909   -0.32258327095414    1.73908670643340
H          -2.09129767702282    0.21249370184524    1.56459067220580
H          -1.47389859725778   -1.62970316968201    0.85684797287732
H          -0.56538603600991    0.19507968170968    1.34736242645088
N           0.91872482168452   -2.02431194433143   -0.74670638348918
H           0.91422521009912   -1.11748275057998   -1.30181292781646
H           1.52639481551762   -1.81464822703923    0.09359697822216
H          -0.06251243350746   -2.25567278891819   -0.41677393148753
H           1.30816000413028   -2.77617514787035   -1.30544769030113
