    26
        -50.45454407  Gyration_radius:  2.42345621991 Dipole_moment: 8.706
 S           1.85159368568331   -0.14268087639358    1.49008075940155
O           0.36280996713512   -0.17790346372234    1.60537492270972
O           2.40991758001786    0.82005876440894    2.38583796203607
O           2.11566088491807    0.38055870527388    0.00218273745474
O           2.38160700179491   -1.47972041797543    1.48595927820488
H           1.59534028808456   -1.87565920546175    0.13837251910637
H           1.77229546661156    1.27595914840763   -0.09065191292208
O           0.54283107164074    2.35454092278031   -1.10454865534133
H           0.94039940177095    2.89887069827957   -1.78460434345767
O          -2.56069095210479   -0.28244773629117   -0.57255841948600
H          -3.46807494834996   -0.56280406593334   -0.69353252429482
O           1.12868405130656   -2.12124613109783   -0.70112312092798
H           1.80256379326869   -2.51637454110039   -1.25685242486583
O          -1.22227914390046   -2.08673835844195    0.69241203478979
H          -0.58481442802022   -2.48116962957229    0.07910998018804
H          -0.66060042670604   -1.48528870859929    1.22710926853494
H          -2.09559973074806   -1.03379735843145   -0.08088503537397
O          -0.11957528489339   -0.01197888080502   -1.98761447528877
H          -1.02790712799859   -0.15738549564519   -1.68788366846237
H           0.34096630788821    1.47171767129364   -1.53154805756965
H           0.42116160532952   -0.69202047576945   -1.53745209418348
N          -1.21156895622119    1.61637231510137    0.79047750347827
H          -0.49150091543743    0.88962327646594    1.22271442300386
H          -1.90542596960217    1.03236635809996    0.27647981123849
H          -1.64242474822669    2.17882446527953    1.51445042308024
H          -0.67536846324370    2.18832301983893    0.11869310894580
