    26
        -50.45553747  Gyration_radius:  2.41749046397 Dipole_moment: 9.589
 S           1.41347218967858    1.24652218964865    1.23655977208403
O           0.19015126773191    2.03516964514422    1.31132529229273
O           2.62613244841406    1.97752148261033    1.40653626880199
O           1.43856671058775    0.69869814777304   -0.29622468041707
O           1.31683699986424   -0.00230561394556    1.99165123606794
H           1.76225901421009   -1.23301041433008    1.09229159104604
H           1.63604754391171    1.47908678989717   -0.80419927634203
O           2.00213414045050   -1.90479933500659    0.39811565006281
H           2.82520297975418   -1.58280008432508    0.02503861650135
O          -0.06100434187068    0.59091648692138   -2.75521865485141
H          -0.59982568415294    0.70225873014944   -3.53972192154683
O          -2.18982308012261   -0.86038028647009    0.29645992896484
H          -2.95082299876111   -1.39236364233023    0.53118966051691
O          -1.38180932610847    1.67073930655651   -0.77560328379330
H          -1.90380957626206    0.92353924047789   -0.45467396024476
H          -0.79749527998279    1.91604348664433   -0.02292715600889
H          -0.51058336762105    1.11403594891156   -2.03502723272190
O          -1.23856679955287    0.14141206682489    2.46288989793225
H          -1.83353617855708   -0.49398266163658    1.17087053022286
H          -0.31277482065347   -0.17506544936717    2.50082563204751
H          -1.09434312142444    1.07485055732604    2.22879397612472
N          -0.07074611085870   -1.60143120949473   -1.20620325682457
H           0.05929754906469   -0.78162988805005   -1.85376864070417
H          -0.22252447328707   -2.45767066559866   -1.72902987497624
H           0.79389468205791   -1.69698026762897   -0.58234069686617
H          -0.89633036651493   -1.38837456068016   -0.59760941734567
