    26
        -50.46306758  Gyration_radius:  2.54511261842 Dipole_moment: 3.899
 S          -2.00341666388156   -0.92522084547824   -0.44150416603680
O          -1.38476793104024   -0.40378259632723    0.76152318987879
O          -1.15631906401452   -1.92038209594514   -1.09809079108580
O          -2.42363819534544    0.10965116265834   -1.36480520032693
O          -3.31387639590030   -1.67939283817520    0.02111488328427
H          -3.77369817046774   -1.77842040892970   -0.80578165942847
H          -1.28181179074197    1.20003420712868   -1.93200851513397
O           0.95118856967830    1.33252268353213    3.15094731198794
H           0.27255618139015    1.46725199460293    3.81334426073156
O          -0.41561178742139    1.63179921888117   -2.11688810079687
H          -0.13959247957625    2.00610903005003   -1.26702893422497
O           2.30442850204955   -0.06072930164396    0.06145564782934
H           3.14097090842315    0.33443746463337    0.30946092995045
O           0.76354309332137   -1.18443003414778    2.22636092395950
H           0.95059572283795    0.36481472183913    2.95863344076100
H          -0.09830387130063   -1.06424981440996    1.78806983165071
H           1.41591533683281   -1.16262185481833    1.51477045854250
O           0.32764038739057    1.59891488844883    0.55675982841085
H           0.55334591022961    1.78458620581226    1.49333786264023
H          -0.39594354976641    0.93640571731437    0.61826361530302
H           1.60242796433667    0.62093393636736    0.26338453354322
N           0.84580610083790   -0.65365294253462   -2.12487882855489
H           0.05292751110463   -1.26437155508385   -1.73884474176452
H           0.41200424963435    0.32030106897667   -2.26194432333259
H           1.58154903362509   -0.57483493687137   -1.39618187810105
H           1.21208041777912   -1.03567308582498   -2.98946957972319
