    26
        -50.45568733  Gyration_radius:  2.56737393189 Dipole_moment: 1.963
 S           0.80215221840753    0.53446240986793   -0.28472166726536
O           0.24920473579413   -0.78172979558323   -0.69314492773269
O           0.05874482148341    1.61383130336987   -0.90754800850560
O           0.82397242698064    0.63652340230792    1.16251535477943
O           2.24367021265038    0.59154792746795   -0.82841023352847
O          -3.22287831402512   -0.05317136120348    0.50909921105852
H          -3.26117147901665   -0.71259604201520    1.20401494309723
O          -1.59685837722974    1.36139849059634   -2.87752032838077
H          -1.09372753439726    1.32254930129683   -3.69296162184868
H          -0.95236585696701    1.60291458451226   -2.16248675251680
O          -1.55061057871176    1.76496709940665    1.34773996981289
H          -0.67036340935518    1.34212615251871    1.44182240953852
H          -1.42445975433649    2.40017983440451    0.63619210706993
H          -2.64771294969614    0.68671105863767    0.85687897193336
O           2.72695305000126   -1.82823920211748   -0.19341738318851
H           2.60857233703399   -0.32633950864724   -0.62697493885393
H           2.79515376887480   -1.75367775608296    0.79404337277046
H           1.79034081840308   -1.97364036555613   -0.38183766414141
O          -2.03626389881044   -0.78958667040853   -1.60314730103523
H          -2.60234109580960   -0.52269296948908   -0.77940308178867
H          -2.00303484477398    0.03393746912227   -2.21324587747161
H          -1.03257899381437   -0.84977849161899   -1.22309743005612
N           2.57485965500104   -1.22858356515883    2.41269550968439
H           3.37470016228849   -0.77980913179703    2.84092149705367
H           2.12704539145281   -1.79778986116067    3.11981537324313
H           1.91899747857613   -0.49351432266350    2.14217847627185
