    26
        -50.45454420  Gyration_radius:  2.42323146597 Dipole_moment: 8.701
 S          -0.76766604083176    2.23019357726142   -0.31903959787202
O          -1.65176723912022    3.03467979210789    0.46351014738233
O          -1.32100306130799    0.85511830505305   -0.50318408165499
O           0.56046772164749    2.00449746540759    0.54285514631902
O          -0.28396473557308    2.74333450180250   -1.57255100468584
H           0.80889022073199    1.56998214320996   -1.72173478409256
H           0.32711342173708    1.64500766983573    1.40566664089827
O          -0.19411654654169   -2.60762720652355   -0.35603774492879
H          -0.29027784897042   -3.50488225907258   -0.67571907403510
O           1.49726596836509    0.86231342565023   -1.81112736299105
H           2.31084730614722    1.32750402835844   -2.01308321787793
O           0.62364983148880    0.14652751091648    2.57803344905261
H           1.24291144891951    0.29963244806991    3.29206630214730
O           1.79541518572681   -0.74645520281197    0.42227242909001
H           1.70882538947718   -0.08574618931771   -0.29424566002841
H           1.16449116097557   -0.17438453143369    1.79884100566598
H           1.27290234112006   -1.51036568543238    0.14005914670531
O          -0.51565398334663   -0.92564900698400   -2.28366459188029
H          -0.32469165033340   -2.00597204226978   -1.15817365497222
H          -0.97837682991516   -0.22675924069404   -1.77326727401363
H           0.33955026587764   -0.51409215817036   -2.47693595958682
N          -1.48703083772926   -0.90675634326050    1.29393003165173
H          -0.83883953303704   -0.61634836588536    2.04332418533153
H          -2.42083288872228   -1.08644437725840    1.64298372531585
H          -1.48885410216383   -0.08223519593659    0.54962452346234
H          -1.08925498461480   -1.72507306261215    0.78559726559763
