    26
        -50.45454410  Gyration_radius:  2.42331522365 Dipole_moment: 8.706
 S           0.42217785448689    2.26702698388567    0.59216121446071
O          -0.58714953183550    1.53034753467113   -0.22598431708208
O           1.00027633463741    3.33857518327796   -0.15519393216908
O           1.57533070928371    1.18982006719198    0.85206926818427
O          -0.10205878472475    2.53623302350646    1.90417402698815
H          -0.26194472756440    0.97263496651123    2.25070137644976
H           1.97533873099678    0.93686175240149    0.01291157031401
O           2.33689225560091   -0.57171477740806   -1.12576404953711
H           3.23394772424994   -0.90469700072884   -1.09132994116006
O          -0.34628721112538    0.01145560252330    2.47862800258901
H           0.06666592861272   -0.07986461834745    3.33898701367189
O          -1.54249628062094   -1.90909582807911   -0.96824912983126
H          -2.23985833055245   -2.52284994125403   -1.19953279857414
O          -2.41282330705040   -0.14411315485384    0.69723867917696
H          -1.90672628496599    0.62351132625757    0.35403785276703
H          -1.94772530097209   -1.25440250161890   -0.31262865024330
H          -1.99627131774207   -0.30399388799368    1.55694983371017
O           0.78560688808923   -1.71591486500820    0.63530259826203
H           1.82885397021916   -1.05424965645326   -0.41036543059343
H           0.49241212034672   -1.05248151695072    1.29208138551339
H          -0.01062900663826   -1.97606346222639    0.15103555410390
N          -0.06923891213094    0.00740894064109   -2.16882290002248
H          -0.27194595238473    0.75508847670215   -1.37298601652946
H          -0.65664767905126   -0.81632761659966   -1.91803056055040
H          -0.29504839292232    0.37740396221276   -3.08437283237386
H           0.92934847375935   -0.24059896226501   -2.08301783752554
