    26
        -50.46163607  Gyration_radius:  2.55687226055 Dipole_moment: 2.235
 S           0.15594546870017    1.85721960478304    1.39657827084231
O           0.70762394192458    2.03630426173811    0.07388562340736
O           0.60591444753105    0.59252984594573    1.97623490767111
O          -1.28324811441940    2.01813586549294    1.48647161383130
O           0.76560753393080    3.01096189933590    2.30672717350411
H           0.12050751845807    3.07891673285788    3.00345239665957
H          -1.96725079849465    0.85072808252808    0.63183707731243
O           0.79057835164329   -2.98644717838833    0.92416729511553
H           0.45046632329463   -2.79889200640245    1.80162802373900
O           0.71382168737675   -0.54316090854967   -2.30411443397402
H           1.18263498989193   -0.42628304154707   -3.13077275963904
O          -2.37727404049319    0.18060154763621    0.02675760200653
H          -3.31416507077062    0.17927514940044    0.22996170538237
O          -0.89526381353126    1.44023774516666   -1.93986666759112
H           0.07755204408596    0.23552332197676   -2.23446698760185
H          -1.62214750130385    1.04300984707180   -1.43350788798119
H          -0.32429572829384    1.85931986501412   -1.26181678928926
O          -1.05001365967443   -2.11776687992339   -0.75805975839221
H          -1.56000433449494   -1.36632733887341   -0.40993680545454
H           0.03450533971419   -2.82893599304152    0.30295575930646
H          -0.51434405391114   -1.75199828915621   -1.47528272845309
N           1.88662539120757   -0.70898158419265    0.14424207387308
H           1.49507378257084   -0.53091656696634   -0.80852263227274
H           2.88652703760890   -0.54376995245228    0.15898806862754
H           1.39841361151365   -0.08160709010336    0.86128557624975
H           1.63620963593624   -1.69767691934483    0.43117428311225
