    26
        -50.44030476  Gyration_radius:  2.50701929925 Dipole_moment: 3.796
 S           1.62137694057157   -1.61759556585170    0.35515671510379
O           2.11211671437670   -1.12163046295977    1.59719894660876
O           0.45586617009269   -2.43607294841887    0.35050085860101
O           2.79301134543194   -2.44549241459881   -0.31009114129041
O           1.44441042813193   -0.45292572363257   -0.62804964822844
H           0.61972558209980   -0.62000359353142   -1.24824612743393
H           3.59408095481957   -2.10573383704193    0.08046875079225
O          -1.87765552471243    0.57724544808051    1.20890095522676
H          -2.58404625355217    1.02817894599211    1.67330083599220
O           1.38513421094380    2.39272577147301   -0.05226402243558
H           1.74047298722521    1.58417003014309   -0.43204858150749
O          -0.54346321340066   -0.92358645412863   -2.07543924289832
H          -0.35509071693043   -1.71980335236082   -2.57719907186151
O          -2.10570124626196   -1.69955575294758   -0.19189073643450
H          -2.15516140729194   -0.91370939858811    0.39306579083172
H          -1.24853704408586   -1.18998591408253   -1.39092841417668
H          -1.40404968790502   -2.24825426315830    0.18751180491520
O           0.65196590117346    1.15530127648160    2.24771962795986
H           1.20932870995366    0.36709760084526    2.19505812086377
H           1.17738684055703    2.15560627578902    0.87536124268886
H          -0.24641867061208    0.87335507532352    2.00849120483642
N          -1.27351241947631    1.93488465333027   -0.94964744627565
H          -1.17559998691707    1.29265776265398   -1.72655769992872
H          -0.33592951614059    2.27734302695748   -0.71545679404414
H          -1.82642648071006    2.72341831352881   -1.25901267674022
H          -1.67328463737506    1.13236550069761    0.38409675883752
