    26
        -50.45568722  Gyration_radius:  2.56719861241 Dipole_moment: 1.979
 S           0.31002583763990    0.48413708221160    0.82678397771351
O          -0.43576264312738    1.70500091556220    0.58358129645180
O           0.99130182891571    0.03464701250528   -0.41364212322383
O           1.42183755646549    0.81579319228308    1.84208214763221
O          -0.52386057201004   -0.58216765088886    1.34979060189922
O          -2.15329699154045   -0.14630643208656   -2.44870698166644
H          -2.16356998549334   -1.09360993715433   -2.59604229098985
O          -0.19584613855502    3.22294445776262   -1.49540745897543
H           0.56771208896161    3.78928420679358   -1.36948849230172
H          -0.34642523483951    2.76045919624203   -0.63011812043454
O          -2.70168002302020    0.18531444681114    0.07973554835448
H          -1.98006770616396   -0.22885232341632    0.59965643838575
H          -2.61823789369719    1.12282032059524    0.27937378705409
H          -2.44234881209158   -0.00707319727995   -1.50193483826849
O           0.13537974358550    0.93286837339985   -2.53816028479430
H           0.55913348136674    0.51332358426692   -1.64430363285410
H          -0.80596305525963    0.50719743925950   -2.59584863107852
H          -0.00522733828234    1.91704384211679   -2.28611095464390
O           2.81094321165701   -1.22072941780394    1.19728190984757
H           2.07731156670646    0.05810549380041    1.73100824738278
H           2.27154529546388   -1.95065111314065    1.59895741598152
H           2.44673266943884   -1.08060990394667    0.31320844518256
N           0.94904176787515   -2.86794735089403    2.19488008944479
H           0.26895663790169   -2.14322451656568    1.95841587030370
H           0.92041383870625   -2.99572564634430    3.19855980419829
H           0.64195083939318   -3.73204207409605    1.76644818939322
