    26
        -50.44412410  Gyration_radius:  2.40820589923 Dipole_moment: 7.595
 S           0.20679756326543   -0.94005863568448    1.76647150539056
O           1.09042776069584   -2.05449661100881    1.94834150788480
O          -1.07676554922958   -1.04609721034825    2.41988681827127
O          -0.14232168308569   -0.90223045570132    0.17472062402770
O           0.83355176440327    0.37238120086963    1.93686826045192
H           0.04588396798825    1.35489633685081    1.12044350318738
H          -0.53915626386864   -1.74454340471530   -0.02943257186704
O          -0.43843341739765    2.03076958263237    0.53685907186181
H          -0.00270269215584    2.87099275543070    0.68962445335959
O          -2.47545444019686   -0.51989089259625   -1.40443596016701
H          -3.27671208346337   -0.27614455112482   -1.87144174291962
O           1.65688318892097   -0.29218470143872   -2.14029657066281
H           2.30387752102445    0.23651329186852   -2.61071258498573
O          -0.47794323407017    0.98140897184472   -1.80038147621626
H           0.39639702905855    0.40489919570244   -1.92688756987830
H          -1.26649194856845    0.30935858991328   -1.70873618167164
H          -0.41885766614792    1.41364596654722   -0.87529099487280
O          -2.71119783121461    0.40267950655754    0.99685287020081
H          -2.21094644441236   -0.18958689682751    1.60987432955747
H          -2.18436031388669    1.21093638161870    0.96340252834523
H          -2.61591498278224   -0.25114736758807   -0.44187327462321
N           2.74737956259748   -0.67821904479192    0.18375967158625
H           2.06240939944299   -0.50295352599471   -1.22163337584864
H           2.33895572714441    0.02211108764666    0.80053889514800
H           2.40141749128003   -1.55180517758648    0.57782267006282
H           3.75327755460515   -0.66123439210597    0.30565558435681
