    26
        -50.44977223  Gyration_radius:  2.61548748409 Dipole_moment: 5.394
 S           1.84453846500580   -1.00004427877690    1.33133785856051
O           1.73295444272386   -2.10436362527853    0.41091004121279
O           1.18028605849099   -1.16647977209176    2.60021882798512
O           1.42572849001635    0.26393574618316    0.68241470444972
O           3.38591844369835   -0.81410914604296    1.65622845692891
H           3.37499449595187   -0.48370300360190    2.54953673896411
H           0.86667436234013   -0.27061269105011   -0.79045254337646
O          -1.79886510828989   -0.88494224720677    0.02870919643179
H          -1.14405543949574   -0.87769410872327   -0.70494581068385
O           0.38955403832526   -0.70929351708079   -1.53111741905779
H           0.79735702261804   -1.58064034797764   -1.56548000615591
O          -1.43428361285198    2.89325990805269   -0.41218477149684
H          -2.38437129528117    2.96731983435370   -0.51848602975274
O          -0.64620282171522   -2.74649340058603    1.45743513465025
H          -1.54146165820201   -1.66847325583575    0.58843993097614
H           0.15126426752532   -2.88305731952139    0.91941920223217
H          -0.29137401211424   -2.26959151571638    2.22491508952581
O          -0.87975981072200    1.06055606579670    1.26579199306067
H           0.11256011164699    0.81548693269909    1.14560175646578
H          -1.06626586278394    1.86825359272850    0.65548036478901
H          -1.38344889240455    0.22367810321092    0.79157258321526
N          -0.52281999635637    1.83748516565868   -2.66280076068443
H           0.27620771193599    2.35532957184550   -3.00682133291678
H          -1.17834378487037    1.73477146110948   -3.42760474239725
H          -0.19514896261762    0.90772767133116   -2.40990257638625
H          -1.07163664260257    2.53169414643443   -1.27821588657689
