    26
        -50.45316397  Gyration_radius:  2.76373124672 Dipole_moment: 6.498
 S          -0.69733630674696    2.30182195664978    1.84652436575974
O          -1.37354197250163    3.51725556529283    2.15845091088586
O          -1.36898946211726    1.08205752295782    2.29897238717246
O           0.68711750642237    2.34175175025077    2.69610679269249
O          -0.24118060733766    2.14991287228739    0.46612828853215
H           1.17157490202576    1.34150362616057    0.59991765231927
H           0.45016638679146    2.95366837515734    3.38491881470618
O           0.47604353730101   -2.80577536625702   -0.92618930123979
H           0.79959237217945   -3.63227690814125   -1.28572661779758
O          -0.83443815782342    0.48763980683602   -1.55760992929886
H          -0.77278455554180    1.29600068957232   -1.01691175869970
O           1.88971287249242    0.67982464176142    0.76326835461932
H           2.33247245336275    0.99721160686645    1.55248054761735
O          -1.77258911715952   -1.98654201032056   -2.19427242529299
H          -1.65892048766102   -1.03013491887114   -2.05145663065344
H          -1.92433692991448   -2.09961281638134   -3.13369280080252
H          -0.36373250397069   -2.60962799042212   -1.39362038396467
O           1.65922305010034   -0.42853815830589   -1.80400914360073
H           0.08804783156699    0.30413851250106   -1.85587074317218
H           2.04740164376201    0.01454788528222   -1.03784416676740
H           1.42466078905937   -1.32331465673622   -1.50361824157240
N          -0.41007878644728   -0.74908589113263    0.80856591532060
H           0.60521553310256   -0.54923007499411    0.87399190408606
H          -0.89421067372954   -0.07971779357672    1.50842321458164
H          -0.71329988438667   -0.43845892716312   -0.14734945511838
H          -0.60578944283527   -1.73501930926577    0.95042245965753
