    26
        -50.45316413  Gyration_radius:  2.7636424869 Dipole_moment: 6.486
 S           2.05671164872899    0.02992099805743   -2.22793102739470
O           0.73854535578880   -0.29771276393706   -2.77413618780616
O           2.93939024039663    0.69266885502014   -3.12988530687936
O           2.74240730086490   -1.41211651918357   -1.92780094837066
O           1.92319136154398    0.62349258710172   -0.89867058172974
H           1.75413156847269   -0.66168711082607    0.09448856398350
H           3.30601253268166   -1.49730659454068   -2.68947426545976
O           1.45210451949622   -1.47170892233190    0.57712846910222
H           2.01194187076689   -2.17363116315030    0.24012645162291
O          -2.48530425460763   -0.70162508713854    1.51302968143376
H          -3.15534266867824   -0.96530783570016    2.14425084973781
O          -0.07755333671946    1.76761494336190    0.47902721169427
H           0.75117190100063    1.65709571122336   -0.02166944697759
O          -2.78049015577419    1.88803980080712    0.77541627444860
H          -3.06272783722451    2.58308719073833    1.37184947520722
H          -2.69516972697545    0.22088049678653    1.25419655205753
H          -1.84619888241537    2.06999025130250    0.57040216804450
O           0.03533651051443    0.01564512264630    2.48774507227954
H           0.68643332061254   -0.58983750190934    2.10898942071375
H           0.07924352892450    1.31684989729731    1.34271660929909
H          -0.83480762884245   -0.36731325595272    2.28252831329870
N          -0.74452112409687   -0.56210209135630   -0.71860998126965
H          -0.69870672545564    0.39408684969987   -0.28723712731798
H          -0.15815064190557   -1.17945207887768   -0.12693936889931
H          -1.70252337641072   -0.89391918047579   -0.76868716591043
H          -0.23512532083991   -0.48565258862986   -1.67085370491125
