    26
        -50.44574811  Gyration_radius:  2.41284276786 Dipole_moment: 4.172
 S          -0.01963175758514   -1.11623311149167    1.38489339604340
O           1.23147034910599   -0.56419474760870    1.86210071193513
O          -0.11494682740684   -2.54132813128945    1.29443182652073
O          -0.05755256075832   -0.58354635218000   -0.15444216443874
O          -1.18940823660860   -0.47722720346442    1.99715751942487
H          -0.67391984921068    1.13699565196567    1.88528400592992
H          -0.71236117645607   -1.12028932887923   -0.60518829734812
O           0.03505025467635    1.75935112746763    1.60332933583326
H           0.81460316922460    1.18209019243515    1.72337439171824
O           1.71309100418729    1.08412543667619   -1.92012929413360
H           2.39646047137915    1.75730879619925   -1.91198655337208
O          -2.55607283427144    0.67495037662070   -1.24426559231941
H          -3.32004067594011    1.17823286807479   -0.95560537832078
O          -0.36568803978330    2.03979684951180   -0.85518633952295
H          -0.18665656421012    1.96005223258735    0.18995793197891
H           0.45834466244108    1.59650285876962   -1.32210901595577
H          -1.17233668368808    1.46570470776877   -1.05063404492580
O          -2.61670050378504   -1.65063531879479    0.16951431866586
H          -2.36075003339834   -2.57355101780446    0.24528970738422
H          -2.63002349636726   -0.19948332506932   -0.81616383599338
H          -2.24771416968456   -1.23003513951149    0.97920657830293
N           2.80580657098366   -0.81828611315697   -0.46205819278934
H           2.07071658275740    0.30989291474781   -1.37444199434254
H           2.60132962136838   -1.73814375377895   -0.83241940069991
H           3.79682401482485   -0.78625163027683   -0.25383342155331
H           2.30010670828275   -0.74579882947640    0.42392381194988
