    26
        -50.46770713  Gyration_radius:  2.51916385902 Dipole_moment: 3.816
 S           0.85653870401224    0.44146519230700   -1.95896665905509
O          -0.54293785883217    0.66999674474326   -1.63134635227132
O           1.29407258667227   -0.89664564704185   -1.60220235812616
O           1.71430445880478    1.48059091380659   -1.41911533600108
O           0.97289905681260    0.52661892010899   -3.53367905831205
H           0.74758437965442    1.43411500254831   -3.71200454593286
H           1.72267223820498    1.60771285887641    0.16413180058122
O           1.66959907514950    1.59947907007972    1.15825590210048
H           2.30645116862295    2.24648388514806    1.46531098632559
O          -1.07764098739216   -1.99241244651147    1.36227467390188
H          -1.63263211939795   -1.25939858518789    1.72342626693593
O          -2.46170744028958    0.15095759023136    2.07332238909506
H          -3.35847710778459    0.18253541520428    1.73741135793161
O          -1.07820975124071    1.93938257155984    0.68184585724552
H          -1.97306656133329    0.87307984779899    1.60822829324581
H          -0.98279234350995    1.55231046152800   -0.20836316198814
H          -0.17938328268501    1.99184274541446    1.03469001988586
O          -1.33431107195078   -1.84463066069739   -1.29029831453943
H          -0.53491572002948   -2.23260620916933   -1.65758972296829
H          -1.31984445077624   -2.05891495393804    0.40876204117767
H          -1.21896489055742   -0.88496737374492   -1.43520624434890
N           1.30276995531532   -1.10648423129825    1.02547465690212
H           0.28907659965208   -1.48514532248030    1.26396403591556
H           1.37624733869315   -1.09547512974918   -0.02693833144728
H           1.42801279738653   -0.13122550724622    1.34395300034963
H           2.01465522685700   -1.70866517233368    1.42465880335659
