    26
        -50.46770714  Gyration_radius:  2.51939401007 Dipole_moment: 3.823
 S           1.12058348042098    1.85851635823817   -0.24494518428137
O          -0.18479241174129    1.63344622879646   -0.84774082281931
O           2.04510298597086    0.77059336074954   -0.51160207937119
O           1.01563326789957    2.17946934396838    1.16677986475324
O           1.73564452456767    3.12965166040733   -0.95641279545227
H           1.14256256789560    3.82549839499044   -0.69180623906982
H           0.38340843211874    1.04593238394226    2.08315468919102
O          -0.01166388145202    0.27388468772078    2.57175284284211
H           0.00895844427372    0.50655915783124    3.50121397271669
O          -0.23702119273803   -2.40561029629289   -1.07070335516390
H          -1.18505350789481   -2.26527819589647   -0.83137254030564
O          -2.70267962700454   -1.70965199300689   -0.39910095802902
H          -3.28297231747431   -1.51167609734199   -1.13532453574560
O          -2.11023302782768    0.61644834771888    0.73519535254125
H          -1.58257039231483    0.45792836863455    1.52991001535308
H          -2.55159853115492   -0.85032531422310    0.06487627839288
H          -1.50768627926461    1.06225962085287    0.11096069550286
O           0.44561853092399   -0.29900396208351   -2.56076201859060
H           1.39553220418989   -0.19495831807465   -2.45432251623403
H          -0.04131634502399   -1.73721867799424   -1.76870171665787
H           0.06785899338618    0.43338377372856   -2.03525657678387
N           1.21660835306546   -1.37767051116648    0.77174943638021
H           0.56401464784222   -1.88933993455952    0.03673228545527
H           1.64620591401908   -0.55671273944098    0.26714340018301
H           0.67066688259544   -0.99158230201547    1.55970986939610
H           1.93918829464813   -2.00454335546725    1.10887262579087
