    26
        -50.45526449  Gyration_radius:  2.81510115026 Dipole_moment: 3.543
 S          -1.04180683092028    2.26690904807763    1.45413949859072
O           0.04896164438420    2.78314403991536    0.65188358647168
O          -0.59519434179599    1.24899019264671    2.40632422645898
O          -2.17743929177054    1.80097054899978    0.68100538849950
O          -1.55927245627167    3.49114336151066    2.32003000993868
H          -0.74472367981374    3.94841738771919    2.50402285865142
H          -2.12345101311913    0.45439248813502   -0.11280076116922
O           1.72574755660093   -1.43670465395928    0.52844047458331
H           1.60643877439318   -0.55479191288949    0.12352196579914
O           1.86689571790230   -0.27214462538904   -2.97847565370702
H           2.75622853000773    0.08086587734436   -3.03002789968496
O          -1.96866720451790   -0.41059385044955   -0.58881315540040
H          -2.67056477427463   -0.48066485486395   -1.23734251293485
O           1.50200378749625   -2.70166395648968   -1.84894302604809
H           1.72899920828827   -2.05376432309528   -0.23195635378926
H           0.67974563895367   -3.04447999207683   -2.20086919456933
H           1.69482361814367   -1.88688818718881   -2.36141490962363
O           0.62969207868675    0.67135480671821   -0.76557936282497
H           1.42194319644900    0.21060675142377   -2.25285754089406
H           0.50185355897055    1.52535197029369   -0.29159192436826
H          -0.25741135540148    0.29593563550617   -0.87475580035574
N          -0.61835103844647   -1.21763512626498    1.63457389854313
H          -0.60514512664568   -0.21290513184354    2.01965664082966
H          -0.90851523306675   -1.87208600536954    2.35168253139567
H          -1.26681802989630   -1.20977251681243    0.83246580014359
H           0.37402705568443   -1.42398695162894    1.26768119545998
