    26
        -50.45526442  Gyration_radius:  2.81460392877 Dipole_moment: 3.537
 S           2.55327652782202    1.34560831008756   -0.08061281327253
O           2.45621300656305    0.56656706034330    1.15471155259915
O           1.55689207100224    2.39577091992182   -0.14614164663907
O           2.58152637393982    0.48165089131397   -1.24561784153082
O           3.95672162404283    2.08350839159423   -0.03361881042608
H           3.74710131846487    2.85163099628865    0.48840190378450
H           1.46781508098678   -0.58877606463808   -1.49109488290163
O          -1.35873973522064   -0.50684621023009    1.79717666771689
H          -1.17532569474607    0.25371194608275    1.21086236612652
O           0.69791273107123   -1.22324584685084   -1.54949526095832
H           0.69219541178402   -1.54410977555923   -2.45237275615448
O          -3.22932666075087    0.95201705701893   -1.04059498815039
H          -3.68124707697475    1.68376697465831   -0.61810916207904
O          -3.28322623753780   -1.46906007314702    0.16233318612258
H          -2.11079597531951   -0.96605685005656    1.36992557868173
H          -3.39635493798791   -0.60995180074031   -0.29897017033094
H          -3.13126840927057   -2.11809863006384   -0.52550603610903
O          -0.61447681227078    0.96355834042865   -0.34876088269085
H           0.13106705136364    1.60304946916176   -0.27536843377070
H          -2.27409512242387    1.08950830319511   -0.87880959324264
H          -0.27856497092367    0.22836084487996   -0.88413677399726
N           0.94305534156598   -1.52877607271881    1.14628821318569
H           1.32015386201311   -2.31263631343738    1.66603842935900
H           0.83971290784092   -1.74370970834020    0.14286232839885
H          -0.01323933025802   -1.20665171507527    1.52540824863639
H           1.60301766502630   -0.68079045420242    1.20520156756759
