    26
        -50.44204360  Gyration_radius:  2.56038552927 Dipole_moment: 3.823
 S          -2.04669669760002    1.18369188345522    0.19193673610113
O          -0.64587660309842    1.62875065388609    0.18509815422604
O          -2.99926291180326    2.21767154854025    0.43251341772044
O          -2.14062981467193    0.23425930031838    1.50462622104544
O          -2.29840791412844    0.31603228225326   -0.93910093446668
H          -1.48126026029506   -1.01600422429196   -1.25822526419841
H          -2.80931681601135    0.74426668080746    1.94692612486906
O          -0.96634509890878   -1.85289326594957   -1.40924364543946
H          -1.56472616512137   -2.44371567792875   -1.86929391826051
O           2.86881587520836    1.12782715900580   -0.68369444793752
H           3.14227607674101    2.00068170925044   -0.97004587359728
O           1.54735501430584   -1.33237328760372    1.90968155185093
H           2.15567007638015   -1.75647063404801    1.30103399139760
O           1.46037557013143    1.13905704339318    1.40564471254277
H           2.11649357950421    1.18601228147710    0.59318764307523
H           0.53122604900116    1.35098061529399    0.99131286947115
H           1.46963449896528    0.13877086361163    1.68925184495540
O          -0.80207932379717   -2.20231156954701    1.25259476141741
H          -0.80142392280493   -2.21394534657185    0.27157134217253
H           0.64398119794103   -1.72961130927292    1.73292992333715
H          -1.38300853022931   -1.46852596384595    1.49421205833733
N           0.74316959384751    0.52015337492835   -2.03574860475256
H           0.50684838407900   -0.46724609306187   -2.05056650938708
H           0.59019360965514    0.88254396471175   -2.96819968814315
H           0.06290350887602    0.96632564376003   -1.41740464238813
H           2.10009102372324    0.84607235720590   -1.30099784389705
