    26
        -50.44204352  Gyration_radius:  2.56038334308 Dipole_moment: 3.824
 S           1.64650134079492    0.50838911552576    1.63027609316786
O           0.34575346345830   -0.17025382763197    1.71873739439523
O           2.30200343818626    0.70623706424107    2.88154491442296
O           1.26502513347487    2.00515286227271    1.13299722192866
O           2.43763235118668   -0.06976608593307    0.56467230512439
H           1.96598592879898   -0.18280024077541   -0.95460905557056
H           1.63230095523967    2.45442344165696    1.88533184634165
O          -2.40115758558933   -2.04089505216485    0.19666925169228
H          -2.61046378137653   -2.69333937774534    0.86683271066115
O           1.64734047372033   -0.21124074345217   -1.89590446698456
H           2.43815457874744   -0.18048992381678   -2.43670899451541
O          -2.07547195915078    1.53835100537448   -1.06851211443808
H          -2.32276318450568    0.93664570108914   -1.77361322788363
O           0.40252483684192    2.14294294098215   -1.51834557838652
H           0.81993481667378    1.30173766901005   -1.80235569521668
H          -1.14891526756034    1.85830135654841   -1.27886695730774
H           0.75173088552731    2.30985899438263   -0.63265058499643
O          -2.02161449516532    0.27458317514879    1.11525681743698
H          -1.02979083745130    0.18663121978385    1.41228968996765
H          -2.05394860824672    0.86436238035705    0.25947123913695
H          -2.27172765738766   -0.68379126522360    0.78109672656668
N           0.14522534647814   -2.20943381972828   -0.25343052495703
H           0.64393213390487   -3.08257924506498   -0.13890222007396
H           0.46003467979388   -1.79124246485871   -1.12348935968528
H          -1.41962643549851   -2.19087268796245   -0.05962314863202
H           0.45139941920240   -1.58091221216749    0.49183572735146
