    26
        -50.46021518  Gyration_radius:  2.60108030609 Dipole_moment: 5.811
 S           1.43168475733109    1.67615112298440    0.15497756007243
O           0.03084319236788    1.56835448163693   -0.17678943124395
O           2.27814404849071    0.89109175702566   -0.74258176839782
O           1.71924460589658    1.36158440256846    1.54615028124571
O           1.83732786314833    3.18919423832299   -0.05534011283008
H           2.72614495053545    3.21064179265125    0.28440438335077
H           1.08250040245878   -0.01706608169510    1.98588635802794
O          -0.30058678080380   -2.02788762520962   -2.19359486793943
H           0.00770980985260   -1.99312613626358   -3.10044374069491
O           0.70590333134153   -0.92694519568751    2.14488254569938
H           1.01758278432057   -1.19543431111558    3.01081028322289
O          -3.48264979502745   -0.15945064879759    0.00990182852553
H          -4.16800972465566    0.51005745922107    0.00431403652710
O          -1.58790937274621    0.17571015809690   -1.88440343241137
H          -0.87834263488296   -1.20634281153617   -2.07942133376914
H          -2.35227201795398    0.00289228213353   -1.29251325868092
H          -0.99935111934681    0.75929004213296   -1.37555943660315
O          -1.62575040571515    0.66562177261142    1.74786341447311
H          -2.86429161844165    0.09300918260176    0.73445220201716
H          -1.06221306495145   -0.05396429666445    2.05805836812961
H          -1.07542128546454    1.14778871430280    1.10288367277193
N           1.51918775882278   -1.55543552042297   -0.37289700759298
H           0.76937559176088   -1.80196488535464   -1.09995986024544
H           2.28251743710793   -2.22324345151242   -0.40809446102489
H           1.87744849844252   -0.56802190637958   -0.58549388866313
H           1.11118279826698   -1.52250450560071    0.58250765603841
