    26
        -50.45391493  Gyration_radius:  2.54596581786 Dipole_moment: 4.403
 S           0.49784714707280    1.71389125771676    1.68565815700438
O           1.74916176389996    2.19919153458858    1.17683729207101
O           0.59103652310213    0.28508915280397    2.04551277188570
O          -0.63080088675365    1.94514157294167    0.79884011279358
O           0.16755252167937    2.48466523969099    3.03278002321865
H          -0.76235794764719    2.32649937196430    3.17779211078094
H           0.06245406596323    1.73928759443631   -0.61384856817918
O           0.68047028881349    1.56937227516489   -1.37935148900480
H           1.18049047337915    2.38428808104138   -1.46556642891938
O           0.45904942758410   -2.40230288375241   -0.82660578042815
H           0.51419274048613   -3.35789249384094   -0.80871454823836
O          -2.90682378915659   -0.50965158288308   -0.62030496288781
H          -3.63168176798482   -1.02930569531909   -0.97007438557238
O          -0.91075775203356   -0.51103799189933   -2.44122276287988
H          -2.26198571892296   -0.40473866480720   -1.35370879054654
H          -0.41404205631161    0.29782110185883   -2.26036348286674
H          -0.39964793228341   -1.23549314689595   -2.05170113839670
O          -1.09138951764128   -1.59425082335165    1.04932668658738
H          -1.82378046824565   -1.13733198893840    0.58271318132717
H          -0.18764586338981   -2.14334789395175   -0.08498949673441
H          -0.58762265274441   -0.89953694965501    1.51282514433467
N           1.97515454438647   -0.36221051117714   -0.04793454534253
H           2.98656999459126   -0.33960554412374    0.02021981070958
H           1.61579902737214    0.42397863970522   -0.65382264755097
H           1.59858428262905   -1.26993748955218   -0.41013780451651
H           1.53017355214663   -0.17258219181523    0.90584153135346
