    26
        -50.45568727  Gyration_radius:  2.56720567956 Dipole_moment: 1.978
 S          -0.01689410020066    0.19657338557118    0.98699288978499
O           0.07610490154676   -0.28861240921819    2.44745302533392
O          -1.41066922185483    0.29672890351180    0.59569484622603
O           0.67649635779024    1.46880112878920    0.90585730972753
O           0.67156104403767   -0.82507507179043    0.15806459136332
O           0.44782205942775    1.15248758622910   -3.02009985255746
H          -0.13440808133354    0.56330457806283   -3.50286682413942
O           3.05374351761015    1.82777692545486   -0.04514866501037
H           3.68938837193220    1.59688230133479    0.63473713715846
H           2.16238069571011    1.82009455254803    0.39144678287630
O           2.19273855998564    0.00564994049965   -1.58806892736717
H           1.54299338348721    0.47169020427268   -2.24480513200185
H           2.67790978603989    0.75244142618665   -1.07942553014265
H           1.54967899684773   -0.41840751194832   -0.83893897428132
O          -1.02074042174092    2.22961161649120   -1.15274033589988
H          -0.12564442036524    1.63029130487180   -2.35522278486323
H          -1.32006271963320    1.51057906959573   -0.55609421622003
H          -0.44567935621950    2.76369655690449   -0.59611583555970
O          -0.40729421355190   -2.71059466189929    1.82076598814637
H           0.05908470459855   -2.50035897501311    1.00090270483868
H          -0.12240264221758   -1.27476529408946    2.38232719060540
H          -1.37410702752098   -2.65844770631690    1.60227382669851
N          -2.90545695779462   -2.07513680816164    1.09282407346972
H          -3.59353443153952   -1.95121083820468    1.82474534445220
H          -3.38610327547058   -2.43243617898657    0.27682737305780
H          -2.53690550958629   -1.15156403469045    0.85861398429500
