    26
        -50.45730962  Gyration_radius:  2.44895161339 Dipole_moment: 7.983
 S          -1.16533605363014   -0.12042269642258   -2.11731525862631
O          -1.91507090177359   -0.64333005792903   -3.20350106631957
O          -0.13020941430790   -1.07704785326438   -1.61661631495446
O          -1.93136474807809    0.39484854533170   -0.99063069038101
O          -0.30471527251432    1.11707034350585   -2.61930183048473
H          -0.18756861732243    1.63039573942272   -1.80191060169016
H          -2.13356053975340   -0.19362890753939    0.43644370490452
O           0.41401400534998    2.34878540449141   -0.31117838288936
H           0.09429395234480    3.25067208774447   -0.27114297254729
O          -2.19785638082841   -0.52284246768294    1.37822966709956
H          -3.12604548223692   -0.47326943887916    1.60868910471077
O           1.74330239750398   -0.98976410929952    1.68088943163410
H           2.28843856437626   -1.55061437612677    2.23286183858424
O          -0.10289427438996    1.12270537131340    1.93461630496291
H           0.12901217383643    1.91649060990283    0.54618753442156
H          -0.92606295031484    0.60545139258050    1.84285933560876
H           0.60059439822836    0.46575231974000    2.04107228153505
O          -0.25231773290632   -2.31879874896018    0.74684734582243
H          -0.25067675130474   -2.04176836808212   -0.19297705318677
H           0.97268169392172   -1.56704623428101    1.36492748955157
H          -1.03544923753768   -1.88136891401584    1.12357652807897
N           1.92187523254968    0.11833040330556   -0.76397801747217
H           2.73718418750140    0.00516974609797   -1.35508427409781
H           1.64790196716527    1.10666168648133   -0.68598178246593
H           1.04236393794555   -0.42140979075688   -1.19641413730039
H           2.06746584616900   -0.28102169668211    0.18883182550156
