    26
        -50.45730955  Gyration_radius:  2.4491738566 Dipole_moment: 7.985
 S          -0.67246560791786    1.28730561545990    1.93647747862800
O          -0.95536363873363    1.61898523391386    0.50570931219042
O          -0.87202585534115    2.39219379172097    2.80525553595791
O           0.61601309979805    0.61456484059004    2.03031273506269
O          -1.74149335786035    0.15903514223881    2.26636305008586
H          -1.28945705518616   -0.64692240077466    1.96394127144077
H           1.81915641941238    0.61654874271480    1.04225714223017
O          -0.71921031551629   -2.04096143365582    1.05134427235813
H          -0.54775191261693   -2.74844056176786    1.67365681595757
O           2.56021424550028    0.54700636064789    0.37482452753804
H           3.36902935226641    0.68363843880598    0.86912249334376
O           0.05733330014125   -0.31633272964237   -2.59684846993266
H           0.11554634209638   -0.20762501689503   -3.54617322737441
O           0.91268847212475    1.79337857471344   -1.39740185330979
H           0.22156988414140    1.92658586381544   -0.71584012836990
H           1.68862892969995    1.49076612059124   -0.89452323158206
H           0.42470310761451    0.53664239602018   -2.19128126857701
O           1.34190372026162   -1.71695742240584   -0.51753016543011
H           0.98317930747000   -1.39298322469721   -1.35669111472605
H           1.89919311585431   -0.99042149388014   -0.17822713758162
H           0.12576279579237   -1.92370619196449    0.52663368401204
N          -1.89651280592898   -0.35821881457671   -0.74831329969313
H          -2.87609042068887   -0.26149524319704   -0.98912957535799
H          -1.28846976871978   -0.43280447217597   -1.59288330227260
H          -1.53803783041068    0.53946967447314   -0.18511059601546
H          -1.73804352325196   -1.16925179007304   -0.13594492858260
