    26
        -50.47071367  Gyration_radius:  2.41589179135 Dipole_moment: 4.142
 S           0.95917695885174    0.23605809594856    1.77046349911215
O          -0.21833547508895   -0.54731110795878    2.10479819570807
O           0.66781352419490    1.54062138547923    1.22676003522064
O           1.88002090263152   -0.51843403221423    0.91732290349563
O           1.72186376286831    0.48187044335717    3.13602322057894
H           1.68563715549071   -0.37544228780459    3.54606618329115
H           2.22614505464806    0.46917523943812   -0.35482700987724
O          -1.47644766917890    2.11471039240297   -0.24553319014644
H          -0.73598990241756    2.12031379299380    0.39432972828009
O           2.19950071939815    1.19971428523444   -1.01549154218506
H           2.02040332684774    1.97338039956873   -0.46911930529418
O          -1.07791501231032   -1.68041698805359   -1.55125364394710
H          -1.32462972911645   -2.41555655140706   -2.11340634561738
O          -2.40393938552229   -0.22750195228710    0.55187270724240
H          -2.16633545914543   -0.81641636323312   -0.17661429676623
H          -1.70650575407120   -0.34009089166975    1.22609260691201
H          -2.05533892468756    1.38352642419568    0.07672589015629
O           0.32934933310198   -2.56820218307973    0.44388435340672
H          -0.50922645152298   -2.06746362094708   -0.82227381255150
H           1.10816867504242   -1.97621206326531    0.47315634768526
H          -0.18717907502684   -2.24496714971832    1.19756144801382
N          -0.18732105940611    0.84524495865812   -2.09483961780794
H          -0.78553084235667    1.44243226097735   -1.40414643061933
H          -0.29237846288089    1.16798146169404   -3.05005654826788
H           0.81995438736528    0.94615196988628   -1.76543563353764
H          -0.49096058770037   -0.14316591818497   -2.00205973248543
