    26
        -50.46161847  Gyration_radius:  2.73516322958 Dipole_moment: 3.826
 S          -0.15102269757642    0.19414564823561    2.51426152226361
O           1.06526977800272    0.82655679290179    2.00813082569825
O          -0.41559908361640   -1.07780215288037    1.87972539272148
O          -1.28531997196343    1.10457298416193    2.45553080643408
O           0.10855554887520   -0.10441834465349    4.04875747659704
H           0.26991161234435    0.76700219583273    4.39644088775726
H          -1.73695924848060    1.57029463308654    1.00552944939650
O           2.36796553735976    0.92812718822009   -2.49327352303571
H           3.29590074748860    1.01460548898426   -2.26992334520712
O          -1.95157226257567    1.79550834015148    0.05858958548485
H          -2.46302121936656    2.60495301807934    0.08956689705368
O          -0.09508580434674   -1.87589852107340   -0.67915731722076
H           0.08131509952223   -1.95542573290618    0.27355578535231
O          -2.48368362073585   -0.98902771010257    0.06004396368997
H          -2.57368545339182   -0.03968263765207   -0.09745648679465
H          -1.07058301586893   -1.75381845367764   -0.69974396275236
H          -2.01475618267765   -1.06020309591719    0.90879523797554
O           1.77376856180391   -1.70323590510618   -2.70733773822964
H           1.16815375875198   -1.90734345994193   -1.97386350358635
H           1.39218991650139   -2.10236683756121   -3.49059076721126
H           2.22036526236539   -0.02138917471468   -2.68854067360538
N           0.50584362750070    0.77482439456256   -0.53555016155105
H           1.21128390535658    1.06151329153281   -1.24571539131560
H           0.86760795515100    0.86165110025397    0.45732321759531
H          -0.36644402668614    1.32390995313505   -0.59098925772947
H           0.27960128627438   -0.23705298297604   -0.68410894976671
