    26
        -50.45708411  Gyration_radius:  2.51463220449 Dipole_moment: 8.091
 S           0.48879172450469    2.12144336266773   -0.58691832448710
O           0.93669528519185    0.82943192263466   -1.03522296954311
O           0.62001312407287    2.28053160961451    0.86576439986062
O          -0.86086883502920    2.44576465475974   -1.02494605049581
O           1.44602319184605    3.20055032781706   -1.23208696895259
H           1.06118850475672    4.01847165463211   -0.93390276510178
H          -1.75390840632043    1.19645387800425   -0.70653761114359
O           1.01953696957855   -1.63840030323027   -2.22510035724936
H           0.92821069791892   -0.67626278017031   -2.16032884986670
O           0.26267643808483   -1.97583446313236    1.60780945510591
H           0.15932190589030   -2.80037843732338    2.08346667286497
O          -2.30401854925791    0.43597088316773   -0.36343102677179
H          -3.19671211868801    0.59330891552297   -0.67628237327022
O          -1.02858409095253   -2.08574223282558   -0.61028118507503
H          -0.31740800671790   -2.03197199214938   -1.29911827931216
H          -0.21993470153173   -2.09335251904511    0.72451898832699
H          -1.50860285700400   -1.24734102242083   -0.67324991684093
O           2.53359636471127   -1.15300118987068    0.06146358507807
H           2.14963989123133   -0.31987641481121   -0.25254345741119
H           1.91970754677595   -1.48004741079137    0.73096382689698
H           1.76120578480308   -1.82961598987526   -1.62719472184511
N          -0.82938189099151    0.43558180120117    1.89436390481918
H          -0.15380144846274    1.20565551502953    1.53856888490187
H          -1.20531558741132    0.68296234730948    2.80346990813388
H          -1.57726638506445    0.37526401530652    1.17255268424022
H          -0.33080456196636   -0.48956615198013    1.92420252715210
