    26
        -50.45568721  Gyration_radius:  2.56711068323 Dipole_moment: 1.975
 S          -0.56169990351077   -0.80422508471556   -0.22286343174495
O          -0.85003452891225    0.49201419337643    0.44154271437470
O          -0.51062443460278   -0.63705180016140   -1.66343623715169
O           0.65855008965187   -1.37711502322780    0.31430285979907
O          -1.75110972538443   -1.73275253495206    0.09321726794687
O           2.08974020949977    2.26735054927285   -1.06598213634701
H           2.57902583539226    2.42367031810472   -0.25640898515517
O          -1.34360480225004    1.43425508894741   -2.96779177544695
H          -1.03779169932463    0.56564414151990   -2.59750768908560
H          -2.29403035648935    1.36323739235013   -3.07360745471372
O           2.23794634256732   -0.30037419259909   -1.49983858897594
H           2.21023596127496    1.29910684519670   -1.28346423579080
H           1.78851954642171   -0.75424842879689   -0.75515159291807
H           1.68359906118724   -0.50396061124881   -2.25945693350618
O          -0.42133236672799    2.52806191605280   -0.87118801280818
H           0.60835409036368    2.51450265502745   -0.97210795106020
H          -0.80672573376270    2.25362973127608   -1.78108984701410
H          -0.63607226043815    1.67693763825099   -0.25127114310166
O          -1.89751702004572   -0.95329239949464    2.51474697833143
H          -1.93335882074926   -1.56003692178204    1.06950018797768
H          -1.09177661365280   -1.38642613901537    2.89990008159232
H          -1.59813091066857   -0.10233106600064    2.16813184701087
N           0.47184669609265   -2.07296274081981    3.06881555902864
H           0.49789116286785   -3.07400556680027    3.21630180158878
H           1.19498376593957   -1.65905651163921    3.64352947903452
H           0.71311640527643   -1.90057143813757    2.09117725812518
