    26
        -50.46111934  Gyration_radius:  2.71286976175 Dipole_moment: 3.934
 S           2.02591314265229   -0.00787462739055   -1.40333725512967
O           1.04828880751941    1.02517690941791   -1.66926952794662
O           1.41696764388025   -1.32520063632511   -1.23987992572835
O           2.90014897832411    0.31418667968187   -0.28555811332265
O           2.94689536813721   -0.10333018422460   -2.68821763357311
H           3.53164955730778   -0.81770999437695   -2.45669341257866
H           2.25012757670147    0.39165396890796    1.16193529550525
O          -2.49104255164234   -2.27844509971406    1.20310734876335
H          -3.05468657931013   -2.28191911637089    1.97755219129404
O           1.75229178947972    0.42905969410637    2.02436928979554
H           2.40857138367026    0.31137923090690    2.71220873083642
O          -1.39189163056442    1.24921317958497   -0.64220992077239
H          -0.67974040832056    1.15421258631826   -1.30661815099309
O           0.57030103789119    2.59373721920544    0.58889614899499
H           0.97958576088847    2.08415054962940    1.29952001166330
H           0.98968133390332    2.27698504248716   -0.22675769559384
H          -1.06073171476739    1.98335890592219   -0.08932221241613
O          -3.48047215979723   -0.55862198261064   -0.63339942165377
H          -3.55991126706693   -0.85723215424022   -1.54084097536504
H          -2.95539614116058   -1.74158736913845    0.52574622037788
H          -2.87198738804899    0.19989259209797   -0.64977650778236
N          -0.26125042410739   -0.82352380367320    0.68947818815161
H          -0.78445132821141   -0.01583619835746    0.27301984471973
H           0.36793648649142   -1.19125691095192   -0.07986322318635
H           0.35184909294435   -0.47839986132536    1.44543842990925
H          -0.94864636680251   -1.53206863957763    1.01047229602630
