    26
        -50.46943930  Gyration_radius:  2.47839459733 Dipole_moment: 4.348
 S           0.94811377070625    1.24166053342998   -1.36144458683312
O           2.33027238144685    0.84035952410323   -1.44839254918155
O           0.58792587012642    1.76571400034544   -0.04801134405024
O           0.01038107063345    0.21793414750544   -1.80154882730591
O           0.76938938758688    2.44028485373131   -2.38753624003021
H           1.63564512337403    2.83365453250772   -2.39397355591078
H           0.09041258505644   -1.26485437524099   -1.26091029370520
O           1.21179880640165    0.16492629732523    1.96324321347002
H           1.02063866519541    0.89647605129591    1.33755144762663
O          -2.94276550141951    0.19028914464069    1.18984990813955
H          -3.17899258956030    0.80956564890886    1.88225980335232
O           0.09557006268671   -2.17960274775346   -0.86718328062467
H          -0.26498083396580   -2.75495919962589   -1.54361674013620
O           2.59156412088393   -1.24558348996965    0.19835260791404
H           1.89928500343576   -0.36821085617081    1.49691060621771
H           1.93742116876744   -1.83725480474792   -0.19294431670422
H           2.67653634279098   -0.50239245308424   -0.43168761278076
O          -1.95512833068907    1.69671286352898   -0.71191505388029
H          -1.09170710791308    1.94321966538317   -0.32611066613528
H          -1.69096326358858    1.13877908571348   -1.45509502799756
H          -2.65306646617068    0.75309978571446    0.41904510463142
N          -0.82097285897338   -1.37536987456930    1.56032429149109
H          -1.69243122472414   -0.79100209428969    1.44639638187980
H           0.01304142841023   -0.71749918903241    1.82201036200125
H          -0.95384344374051   -2.08894310825025    2.26824704056959
H          -0.57314415675958   -1.80700393140414    0.64617931797611
