    26
        -50.46944021  Gyration_radius:  2.47842136975 Dipole_moment: 4.356
 S          -1.91644721428249   -0.04537269505647    0.78729803806172
O          -1.27373231161758   -1.29979035309246    0.40891455611248
O          -2.82529279439139    0.44675214407180   -0.21798595102126
O          -0.94081169192010    0.94051076390546    1.23092498987086
O          -2.79979764986015   -0.36251939989809    2.06806845677993
H          -3.63500970828797   -0.60783370878994    1.68438960738598
H          -0.07947926756309    1.77599276963326    0.20201519572217
O           0.51406186983476    2.24947326735689   -0.44228982236346
H           0.73717179652033    3.08296396359744   -0.02505697953980
O          -0.08782082306172   -1.22952855337374   -1.95487414345271
H          -0.56483340403474   -1.43326956627567   -1.12179952133344
O           2.70501386967433   -1.14580810728205    1.21563972965492
H           2.92840199719865   -2.07764148899156    1.19330421061090
O          -1.31501011483860    1.08667514904736   -2.32499188254658
H          -0.73069131899801    1.73217058655312   -1.90911284232357
H          -0.58505497082683   -0.46289100049750   -2.32829747057492
H          -2.00901349700856    0.90190182599166   -1.66109011918055
O           0.38717470474604   -1.06670275138369    2.43337464651830
H          -0.20313356625421   -1.41798539738896    1.73812857538841
H           1.87092047726272   -1.08665799747126    1.75940019635043
H           0.09508275382654   -0.14824291811602    2.49975640575585
N           1.97170351607985    0.04012700391960   -1.05293569226141
H           2.72439279024580    0.14887751287794   -1.72347261838712
H           1.15962424531664   -0.56060622059764   -1.47289541355686
H           2.31735296752166   -0.42470852827796   -0.17072214477001
H           1.55522733474354    0.96411368961737   -0.81568999686753
