    26
        -50.46705759  Gyration_radius:  2.51877118397 Dipole_moment: 3.179
 S           1.71242893712336    0.11742233435029    1.45166096920335
O           1.06450287756190    1.42508164304364    1.50541711047816
O           3.03986627628747    0.14687995359675    0.90960804982571
O           0.83850171666156   -0.86833941379198    0.81913839212889
O           1.83907911134338   -0.37115008965649    2.96564910300106
H           2.71120727087170   -0.09160829649934    3.22713127864226
H           1.67193674366493   -0.47717156873271   -0.69048485302030
O          -1.24357455375280    0.31635079811041    2.03596339552539
H          -0.80790528571404   -0.52766829844086    1.85088223976201
O           1.89511999368989   -0.20051707055736   -1.59672921576540
H           2.82587508999726    0.03240555261432   -1.54673542495267
O          -2.54568677604999   -1.22652946622783   -1.72333485749761
H          -3.16576552702880   -1.88144301829478   -1.39982743941536
O           0.34153556531976    1.95562896479250   -1.00039386007545
H           0.67773569574370    1.94834508932684   -0.07934889356059
H           0.86953833536303    1.27640696783742   -1.46176991064447
H          -0.47961093335892    0.93109265047162    2.05382292597612
O          -0.14341654185305   -2.23702559445192   -1.34166570475039
H           0.49487258367820   -1.84496069042109   -1.94785905870682
H           0.13462900647644   -1.92623400893407   -0.46425952738829
H          -1.64929022233567   -1.64806521070454   -1.66252147551366
N          -2.04041747977726    1.03668685773530   -0.38836557831638
H          -1.11541679036577    1.43781873555108   -0.75062311771302
H          -2.76963264173376    1.73973554393950   -0.43444084939479
H          -2.30286405510348    0.18773974300386   -0.94846098572809
H          -1.85324838668253    0.74911789233791    0.61754729792336
