    26
        -50.46163531  Gyration_radius:  2.55844710894 Dipole_moment: 2.276
 S           1.12594562338827    1.98569606938338    0.47930113190686
O           1.17277371635290    1.57120654473381   -0.90320801373063
O           1.43662392529872    0.86499302507971    1.36581218829011
O          -0.09148854147148    2.67053253553604    0.87207027101156
O           2.29142834508354    3.05036770723989    0.67718693421368
H           2.00390591422815    3.52090662969159    1.45312483947107
H          -1.31309055299594    1.64608629931725    0.74043625254884
O           0.28946003085444   -2.68724856315532    1.76086148995620
H           0.35026485478921   -2.15999820485102    2.56019906389110
O          -0.34449479859327   -1.38264544219886   -2.01622760865233
H          -0.19529198498081   -1.67877849643284   -2.91448612741337
O          -2.07285435495884    1.03240143685034    0.56794788835058
H          -2.83583589045539    1.43143679813996    0.98940970016253
O          -1.15712880490872    1.06582276988197   -2.04182554160691
H          -1.71949057019506    1.11841066254472   -1.25214607073308
H          -0.29058981458086    1.41986901981743   -1.75018239199432
H          -0.69454952615845   -0.44032817298998   -2.09030224763682
O          -1.75649236630628   -1.71208427780451    0.40768644220476
H          -0.57551071950476   -2.44384055071533    1.34215201580156
H          -1.89533665748767   -0.76157595474346    0.56020597030143
H          -1.44712926499202   -1.78111141801354   -0.50593392736211
N           1.56279566714634   -1.27589711612117   -0.07979959132917
H           1.55374712458714   -0.33957070661894    0.43954491532077
H           2.50347657559335   -1.49492344194860   -0.38724283236436
H           1.19225608918143   -1.98154096588869    0.61814887253278
H           0.90660598108326   -1.23818618673475   -0.89273364314010
