    26
        -50.45730946  Gyration_radius:  2.44929929101 Dipole_moment: 7.988
 S           0.89078972572680   -0.33661294901101    2.22625426497351
O           1.45419009754431   -0.05689918549438    3.49891051169002
O           1.51848662495989    0.46187244343935    1.12828614570584
O          -0.55905980273371   -0.24040077674997    2.12473208378985
O           1.22476471992688   -1.83652759913368    1.82165871566336
H           0.49726594624336   -2.05238110745743    1.21381611435111
H          -1.44496518447483    0.82611742808182    1.41665375588852
O          -2.01497311581593    1.46039048216521    0.89487869369630
H          -2.72933091527362    1.71125709160454    1.48133691610594
O          -0.51587943721141   -2.34009376609932   -0.19786516476441
H          -1.09955457293361   -3.07192758738055    0.00438471046524
O           0.20989374833366    1.06253822567067   -2.38147842181814
H           0.36050927863463    1.63227203361191   -3.13593203005837
O           0.28358928555383    2.42447046579724   -0.19957419551223
H          -0.61097744145737    2.33857130780545    0.17299200073278
H           0.83770215268627    1.85223374858884    0.37098741596485
H           0.23327111221607    1.66219225645279   -1.56486172416691
O          -1.89713831249799   -0.33767351979202   -1.14345646490853
H          -1.29955131334116    0.13069590406365   -1.74466458933221
H          -1.10807601540871   -1.58754772610796   -0.49168777427803
H          -2.08661378979192    0.29531480886272   -0.42429387143544
N           1.58881785865953   -0.82072337740668   -1.04387543454538
H           1.16088958093587   -0.16711088970613   -1.73539287519816
H           1.61782773564859   -0.26925472519380   -0.07124449336753
H           0.96816973195026   -1.62875209926509   -0.90264406711604
H           2.51995230192127   -1.11202088734561   -1.31792019252658
