    26
        -50.45288163  Gyration_radius:  2.71789568121 Dipole_moment: 5.377
 S          -1.04515793924978    2.67370967453581   -0.09098286412084
O          -0.27691248761709    3.31657452713788    0.93198886258751
O          -2.07026714038394    1.75681624329459    0.41946441871454
O          -0.20673373631454    1.97767292962981   -1.07892527790349
O          -1.83280770057302    3.79432391325563   -0.89284920569966
H          -2.40335345164058    3.30495727683860   -1.47925751264000
H           1.15918202885403    1.70126390047849   -0.10414042293609
O           0.73145354485877   -2.66720745779719    1.29024505115804
H           1.18156546883244   -3.47089198112059    1.55312833498613
O           1.66394508597493    1.45100641913901    0.70250724272601
H           1.57505850366276    2.23664059148549    1.25410352285219
O          -0.04137794845002   -0.63597323413745   -1.61682761318292
H          -0.14226784325203    0.33590352233614   -1.66995897121573
O           2.31510911322531   -1.06867563595752   -0.42587190463015
H           1.93171530640728   -1.63358407202434    0.26521141869972
H           0.91811888940398   -0.79481497819389   -1.46923024312594
H           2.46579573272333   -0.20549006839148   -0.02165352159752
O          -1.02428429785321   -3.03870697516466   -0.76045938054077
H           0.10857836090594   -2.92476553717885    0.58274199320249
H          -1.97394674872843   -3.10369383254268   -0.86794547366488
H          -0.73096981024131   -2.29383464514419   -1.31242249581093
N          -0.47251254398839   -0.16576696577906    0.99486117953080
H          -1.25772594184008    0.55802431340287    0.92853757972188
H          -0.39279643715944   -0.57478903968969    0.02766155545569
H           0.41413033192166    0.36792762092273    1.14880819993202
H          -0.59353834947565   -0.89662650943190    1.69126551762044
