    26
        -50.45514043  Gyration_radius:  2.7511771274 Dipole_moment: 5.664
 S           2.46342572316275   -1.25236741463799   -0.88369807004403
O           2.73989182897602    0.18937094868080   -0.84775432370527
O           1.23860122956120   -1.56423109347131   -1.57525020257732
O           2.54373865042419   -1.82515449961846    0.45309439658110
O           3.64946995887887   -1.89700388981781   -1.71797952611327
H           4.41396117417363   -1.67207732320830   -1.19611066097761
H           1.40060055545214   -1.33226689451022    1.41924684526216
O           0.72396317662787   -0.90486227415182    2.01750279898322
H           1.05911185697433   -1.01831656083767    2.90796239568858
O          -1.09933948348767   -0.38376273712085   -1.39788659368872
H          -0.31675916681652   -0.92305723820020   -1.64364346783654
O          -2.01315534622083    1.78672228025941    1.25557825494138
H          -2.71443755681691    2.19373679385871    1.76490740812981
O          -2.56169884197679    1.89155703839472   -1.39358183923703
H          -2.24555182399414    1.91505719600765    0.31130489882680
H          -2.05238863548561    1.09275896706454   -1.62584928381592
H          -3.44362581567325    1.75409388907160   -1.74234685440345
O          -1.89633582387372   -1.00313451130773    1.06675187372298
H          -1.05009507587218   -1.24383823118485    1.47120878089962
H          -2.02678366977434   -0.06559046116207    1.28987756348068
H          -1.50574246606987   -0.83504720075922   -0.62138354903548
N           0.53545171993010    1.05405683583547    0.14592903925336
H           0.34571716638266    2.03849160631351    0.30399047348413
H          -0.18155737239006    0.63126362561741   -0.50800761830960
H           1.49567286115768    0.85217664250249   -0.28955738355745
H           0.49786517670385    0.52142450637969    1.03569464400244
