    26
        -50.44778662  Gyration_radius:  2.50303152826 Dipole_moment: 3.914
 S           0.69192005131142    1.77317226803829    0.58481723825845
O          -0.43670945885777    1.05186044536175    1.12849045459685
O           1.04159495306745    1.26565226291843   -0.75378095057343
O           1.84123236089381    1.85821609605504    1.44827160652047
O           0.20577522523981    3.26839735930066    0.35828050936969
H           0.97584542042811    3.77406184939888    0.59737827901286
H           2.99474309410954    0.68689067747113    0.80409122923969
O           3.30680993528887   -0.04530949957044    0.24239094553998
H           2.99308372522063    0.18920646280472   -0.63570670276416
O          -0.54005436445996   -2.27128911397574   -0.35340231441776
H          -0.17443104325639   -3.08300744119793   -0.70772702823467
O          -2.82584921734049    0.51669704221136   -1.75282503933105
H          -3.51653522360431    0.05590525507585   -2.23194386719611
O          -0.42805038924626   -0.30272104173611   -1.95253051915817
H          -1.37571717237227    0.09531302300867   -1.96524110815102
H           0.19893008410102    0.40669744276095   -1.45420115206972
H          -0.46900793389486   -1.12838139322808   -1.32706008433073
O          -2.57147411981753   -0.48600080166213    0.63402563095151
H          -2.88801537224327    0.22504229233165   -0.79926565110017
H          -2.08756881250087   -1.30698579027065    0.47834057718015
H          -1.90187475119207    0.14387552094656    0.96172969012459
N           1.05684804080487   -1.34441118293182    1.40680766634716
H           0.12078031613095   -1.95003302917418    0.39701364633147
H           1.97383884652820   -1.12738543833104    1.00698376842640
H           0.60937161349730   -0.44921599547591    1.59533075478944
H           1.20451421219455   -1.81624728014729    2.28973241063700
