    26
        -50.44448077  Gyration_radius:  2.50738374741 Dipole_moment: 7.756
 S           0.52187316656255    2.52063271608741    0.22352159367068
O           0.47377860235919    2.70940957845617   -1.20269063431164
O           1.22970454307145    3.46621681873932    1.02138893887908
O           1.27139930242728    1.10187811496648    0.38956015295335
O          -0.83477048457337    2.24807062565445    0.78485004919392
H          -0.23531546367017    1.73492758676610    2.28943671907065
H           1.36711852601830    1.00323326188929    1.34650690972536
O           1.21668223495953   -1.89955002471053   -0.35275204652973
H           1.92416360933132   -2.54427087322226   -0.34597038293867
O           0.35921722250658    1.24637993368327    2.89831652569564
H           0.76869500361492    1.91635378322947    3.44938563408620
O          -1.66508266463614    0.16292756511384   -0.19884321647539
H          -1.43298710259225    1.13364503531761    0.20543305666668
O           0.12745406379521    0.25653155966706   -1.97025451887270
H           0.29059548599840    1.22904216203111   -1.85357789520851
H           0.85481680061195   -0.17321084502954   -1.49558667099331
H          -1.00024754750824    0.11267802822320   -1.00534259512104
O          -0.47743102695243   -1.17635775443257    1.60468255300503
H           0.29065953267736   -1.43773692432125    1.05470005731415
H          -0.17289710677147   -0.50404482210382    2.22958533024139
H          -1.29115406915753   -0.46441262688417    0.53521448779428
N          -0.81388994322885   -2.59700394997655   -1.99015777522927
H          -1.70276839491315   -2.60292909783622   -1.50503533843561
H          -0.79255844415279   -1.77476267656240   -2.58416619920482
H           0.50096790328543   -2.25288105682784   -0.94280248822649
H          -0.77802374907150   -3.41476612791384   -2.58540226670378
