    26
        -50.44448079  Gyration_radius:  2.50718887008 Dipole_moment: 7.758
 S           1.63423181213116    1.03235325447403   -1.71429633800749
O           2.99512358954577    1.01397944550600   -2.13768489417086
O           0.91878997580483    2.28132441162235   -1.72156685094328
O           1.61279574260830    0.59619872579171   -0.16148339319008
O           0.84818884977520   -0.05163754731556   -2.37537571604049
H           1.85078876926242   -1.29257070719376   -1.79132571461940
H           2.15071634241728   -0.20678451874653   -0.14105977387839
O           2.37947954073113   -1.77793152900565   -1.12208908250052
H           3.27078938845122   -1.81242956738594   -1.47514088179007
O          -1.21646226208104   -0.38706019046179   -1.09880583388304
H          -0.39404957656995   -0.24366448183285   -1.77887302773154
O          -0.18663934114675   -0.02420722646729    2.27620483884186
H           0.02633112528281   -0.03031821275695    3.20942401076622
O          -0.85267799208501    1.79633110464616    0.10940743155536
H          -1.20036208032981    0.51310819476990   -0.56526752465954
H          -0.27542285286835    1.49660677338464    0.82773380627302
H          -0.23289499191246    2.15489559508185   -0.57853979016806
O          -0.00945657268994   -1.99397007027236    0.45621444728489
H           0.84793287477741   -2.12894793452524    0.02972744100115
H           0.12211734183789   -1.35524273064019    1.18803963287968
H          -0.84020600247514   -1.11519241307452   -0.46604404549589
N          -2.82646144492010    0.30040409376632    1.81090287899665
H          -3.19760198631760   -0.43773187367455    1.22531510652379
H          -1.17284773509908    0.05768917228251    2.19899039348786
H          -2.75889049631690    1.13899127019059    1.24383018209458
H          -3.49331201783275    0.47580698184978    2.55176270734908
