    26
        -50.44448081  Gyration_radius:  2.50729928561 Dipole_moment: 7.756
 S          -0.86377419421530    2.38617830428245   -0.48460919683011
O           0.24504557877367    2.66542463158980   -1.35894267756430
O          -1.57450546478468    3.47553985693260    0.09832429897553
O          -0.18990749287162    1.55644164156103    0.72344009778093
O          -1.79994775697139    1.39232250477598   -1.08945393937661
H          -2.63139475860505    1.11759723871232    0.36663381363316
H          -0.91751541808105    1.42592732540679    1.34647955694387
O           1.47307194069454   -0.94221935839411    1.46867619298285
H           1.98852690638417   -1.12256879994512    2.25484047741799
O          -0.58085019357575   -0.70839809249839   -1.41378677906056
H          -1.16747351920946    0.19472993157980   -1.40684082298421
O          -2.72238323706731    0.95177661184463    1.32948966390890
H          -3.25093229772844    1.67823520701486    1.66590403899520
O           1.61394176423751    0.48282404897326   -1.06144578165903
H           1.66976965783319    0.44903339463938   -0.09459784001148
H           0.38853364069257   -0.32358359139519   -1.32967755941572
H           1.23931940553633    1.38055049756764   -1.26065083181748
O          -1.12616771168986   -1.40781715805550    0.96751634394098
H          -0.25410967085618   -1.17424590033908    1.34933026621668
H          -1.76189951049500   -0.74242661568254    1.26466488290025
H          -0.81902600085906   -1.11975857781838   -0.49389804580997
N           2.25004395133825   -2.42457692585202   -0.65020627817142
H           1.47658030874003   -2.94040557532385   -1.05166024849938
H           2.46608794571388   -1.65622130401768   -1.27656018708622
H           1.79588813160175   -1.55450571423590    0.75721187378465
H           3.05307799553781   -3.03985356126742   -0.62018131919716
