    26
        -50.45059471  Gyration_radius:  2.46311327187 Dipole_moment: 4.141
 S           1.93942451168778    0.06670243295397    0.48888109591998
O           2.12599157040614   -0.32496469415547   -0.98647591925822
O           0.93728315375165    1.11313774295079    0.55568328273521
O           1.33003489286228   -1.21566560395455    1.12000112827279
O           3.17623811097449    0.35522793379456    1.11194110735686
O          -1.84284125119359   -0.22330318919501   -1.28114086156185
H          -2.74748043511618   -0.21859167543971   -1.59502855604836
O           0.83362374178849    3.10558509263480   -1.22914423776583
H           0.83507517805796    2.53851376942974   -0.43454202263070
H           1.67643506980926    3.56171921652284   -1.24040221844636
O          -1.69693050568059    0.75851674968071    1.08029282036831
H          -1.85384762574113    0.20098245755380   -0.36079857265373
H          -1.66477116285735    0.00360851354259    1.71311101040997
H          -0.77763727905643    1.06852910396076    1.01483712069365
O           0.40186423714875    0.76607512143786   -2.43723307510591
H           1.42021132581740    0.13490119742923   -1.60663515718456
H          -0.47288967970136    0.48546990472093   -2.09977818342329
H           0.49298358111672    1.71316635723698   -2.19168071956248
O          -0.08437788982628   -2.17315813879896   -0.79693478477318
H           0.51724046470875   -2.14035429413804   -1.54600971575545
H           0.74908249172196   -1.63522613580193    0.41342235492247
H          -0.81202685840798   -1.54213197433622   -0.99444869524031
N          -1.23735574139270   -1.39222673130737    2.69164315080339
H          -1.37164926769636   -1.29419213080868    3.68999080646915
H          -0.23910867905348   -1.43297771692003    2.51155964264518
H          -1.63457193413123   -2.27934329899053    2.40888918880937
