    26
        -50.45980661  Gyration_radius:  2.48339706623 Dipole_moment: 9.582
 S           1.94185390059265   -0.37990598653732   -1.34840817099524
O           2.77944291859761   -0.56763785852874   -2.48251902754422
O           1.42107106521943    0.97894770027084   -1.16122815800811
O           2.90698624685456   -0.58132283939111   -0.05487210931006
O           0.88657961396312   -1.36329161271292   -1.15119369715661
H           0.61999746499954   -1.63360060232537    0.37798103178509
H           3.73847583427391   -0.72291072560986   -0.49434564162567
O           0.51187748378950   -1.66463959461903    1.36992828968372
H           1.15946149361574   -2.29826266836965    1.68140876527326
O          -1.81138536805696   -1.05283183375811   -1.64509232862928
H          -0.88557954657412   -1.33957929934701   -1.63688255126133
O          -1.81697269545905    1.60903767967986    1.14764161225299
H          -2.52434714986961    2.02603353177581    1.63941302949956
O          -2.22587688164825   -0.92316313430180    0.94635533306367
H          -1.43445200489871   -1.37731197823491    1.25979531041903
H          -2.06236305016610    0.63034683093644    1.07022845612091
H          -2.21870132295931   -1.05292462185015   -0.04053237888271
O          -1.22717888577954    1.60125916173598   -1.67022595182764
H          -0.26435027622391    1.48746611316317   -1.64977997142143
H          -1.77354233376066   -0.09847203292582   -1.85553499648339
H          -1.49620004557936    1.81077676652605   -0.76568435766662
N           0.76396077016479    0.99812305799800    1.32129419612852
H           1.40919633394586    1.49103695147418    1.92827043876171
H           1.07816411559138    1.06714879283520    0.29283591820896
H           0.73332127309398   -0.02749185433966    1.53733470333331
H          -0.20943895372205    1.38317005645780    1.38381226627482
