    26
        -50.45683669  Gyration_radius:  2.52354859797 Dipole_moment: 8.075
 S           1.36741555515280    1.60318258385266    0.84965970816741
O          -0.06540618517621    1.56977317007481    0.72888728797260
O           2.03455656513763    1.31284117962416   -0.42591424701329
O           1.88499648142540    0.75220877459483    1.91032227835979
O           1.77353305640431    3.08452131701614    1.22425881901946
H           2.70715910952787    3.00017621473692    1.38853852835449
H           1.24474409990093   -0.67410061892304    1.74238323632692
O           0.91873880448129   -1.58978613533692    1.51427630420965
H           1.13645152430414   -2.14481213256833    2.26523116129487
O          -1.00306984739538   -1.05751091807413   -2.10732209465758
H          -1.29586008453187   -1.19900872640986   -3.00792744863857
O          -2.82443145200862    0.77017220289079    0.87819265130822
H          -2.01509365722204    1.18762507617242    1.19798308322245
O          -1.61978407963880    1.32563915937476   -1.43754422213841
H          -2.35479102245584    1.19684432636248   -0.79614425695751
H          -0.89194990083602    1.59113789728790   -0.84505510154931
H          -1.27279577854100   -0.10048381825682   -1.87289955801617
O          -1.75015508973431   -1.74998361308813    0.57234559868697
H          -0.88337977335770   -1.65948556543219    0.99336816165532
H          -2.63476236362431   -0.18638662334859    0.88898299870894
H          -1.60102789312128   -1.67314025648549   -0.37886654715363
N           1.44008155395389   -1.09405620227302   -1.07537612349350
H           1.30820176868739   -1.52108329267846   -0.13637730666304
H           2.16462697404362   -1.57022606745290   -1.60154081891700
H           0.51626830882472   -1.11078398358525   -1.58526338229445
H           1.71573332579168   -0.06327393823705   -0.88419870983168
