    26
        -50.44835991  Gyration_radius:  2.45395195709 Dipole_moment: 4.175
 S           0.35563557312924    0.86554482971944    0.81153168483045
O           0.97816944824109    2.12411383558726    0.54668768239788
O           1.20943283231823   -0.14921089548300    1.35602207000647
O          -0.29956657783033    0.33601405387893   -0.50377437628537
O          -0.86269886180435    1.00866830087495    1.72295775030141
H          -1.65432591890352    1.46602358178460    1.22506448564268
H           0.40726277571700   -0.07387631015045   -1.09190375666074
O          -1.74795902098378   -1.67396878796453    1.16158448891128
H          -1.35781651804708   -0.95328540502681    1.66678170375202
O          -2.86926700836373    1.89111433808802    0.51665901911092
H          -3.59507016786130    1.94335719002332    1.14345778104083
O           1.59634555212127   -0.62219078258857   -1.94380723141404
H           1.59516854620585   -0.24828159517728   -2.82739474461793
O          -3.07217313993575   -0.36713115323742   -0.74400811445301
H          -2.36303288178372   -0.30020439850644   -1.38812707126189
H          -2.71229118244888   -0.95389414569472   -0.03466616682019
H          -3.03490098626072    1.06790345396393   -0.03864210344795
O           0.65943953364616   -2.49495469733459    0.14585717546607
H           1.00987323804083   -1.77385145261812    0.69662688094427
H          -0.99743717099963   -2.16857115363542    0.78054359220894
H           0.95693735762184   -2.30445276127734   -0.74848213727209
N           3.26348343153774    0.73961836076381   -0.46861092930193
H           4.13419029397418    1.18211438303183   -0.73756379293083
H           3.44235398340252    0.15846853720862    0.34222400348161
H           2.61632946498165    1.46216587192170   -0.15471436443407
H           2.34191740429034   -0.16123321814814   -1.43430355919111
