    26
        -50.44835993  Gyration_radius:  2.45401703417 Dipole_moment: 4.173
 S           0.35684072241825    0.04502855164269   -1.18511915805030
O           0.28384612133241    1.46959874295037   -1.04185907269892
O          -0.30417864680727   -0.49847028823753   -2.32930982690242
O          -0.21510004827349   -0.63183975867587    0.10119890841037
O           1.82621322255650   -0.37002708901161   -1.12045817445286
H           1.92277997462793   -1.37969977815149   -0.88523824745855
H          -1.09691988991854   -0.20971768779007    0.34104606868102
O           2.08849012731116    0.53140611038174    1.60216693093921
H           2.19495250303474    0.54648087046021    0.64545120992983
O           2.12738749926751   -2.72646446141869   -0.33576776174225
H           3.06901597996278   -2.91348353825503   -0.30829511624063
O          -2.48163313687401    0.47459234716273    0.57632521028541
H          -3.18092175591808   -0.17495892127927    0.67444354359953
O          -0.18142076335312    2.06253536603938    1.54665252505163
H           1.34269848229282    1.13077418603290    1.79624486499509
H          -0.01536706091169    2.07504034781245    0.58831751061257
H          -1.06938001359530    1.70851268352691    1.64996655757113
O           1.39415638517988   -2.00100191914741    2.04440112616796
H           0.44405941800707   -1.90718409757626    1.94073509260899
H           1.84448744089876   -2.56283796895885    0.61640182319369
H           1.74185235208044   -1.07601517938644    2.01944895289431
N          -2.47060975439415    1.31500680915910   -1.89436367452067
H          -1.93062783600655    2.17259653210035   -1.88440535185357
H          -1.85305139104685    0.60290388054325   -2.28286441528045
H          -2.58509033011263    0.87507402038310   -0.34926670992589
H          -3.25247959176788    1.44215023969215   -2.52585279581918
