    26
        -50.44836000  Gyration_radius:  2.4539847067 Dipole_moment: 4.179
 S          -1.13193004287088   -0.14933782831273    0.48000716328792
O          -1.58658417945109   -0.19638860781206   -0.87874767947753
O          -1.84907773459990    0.73410321494113    1.34424827177118
O           0.38185554874360    0.23479296161387    0.50355384319553
O          -1.09265734210147   -1.57712474105613    1.02367703722461
H          -0.47384461354365   -1.64532691346895    1.85797161075744
H           0.53721561296908    1.03243670760122   -0.09065580288097
O           0.94821668144720   -2.36462775994671   -0.84982011698633
H           0.06727657921623   -2.30470186984476   -0.46626581716661
O           0.64512753102607    2.30754846678317   -0.98671953088787
H           1.09507827759713    3.02024706703301   -0.52830974010708
O           0.55471596679410   -1.85125143484897    2.88683875166564
H           0.53472189676953   -2.76863473570448    3.17040146142317
O           2.49044531100262   -1.59215436698936    1.17914721301103
H           2.48306345279156   -0.64682523413487    1.01039304517882
H           1.38025614794811   -1.74927792886903    2.31988684556949
H           2.03771653633761   -1.99045013387589    0.39593608732677
O           0.55678226303064   -0.22518725574846   -2.51396676103507
H          -0.33248667561071   -0.22359495610771   -2.11976198036152
H           0.91279812085600    0.65295590686461   -2.35070559480465
H           0.97069081513202   -1.70472664231348   -1.56897791536597
N          -1.92924763053168    2.66900365318810   -0.75798662788198
H          -2.44747195914030    3.53872381374583   -0.72181733094364
H          -0.34097008877057    2.54306300170468   -0.99289922058016
H          -2.06313432528506    2.17533680664392    0.12394604590436
H          -2.34855612976103    2.08139879894763   -1.46937322781059
