    26
        -50.44999803  Gyration_radius:  2.6023601648 Dipole_moment: 5.574
 S           1.41342994009136    1.17866766464937    1.66752134532475
O           1.92639604533299    1.63200142069108    0.37906115459781
O           0.97091649518498   -0.21351278416851    1.59408924932283
O           0.50018328433293    2.07971552219113    2.31196755931732
O           2.70287735561945    1.10956243498194    2.62645043296003
H           2.68046758355521    1.91454943277626    3.13711769458455
H          -0.53688055050028    1.98316718036561    0.91586180252776
O          -1.04986469365037    1.70260728055034    0.14506986974418
H          -1.84109693483611    1.25968606710965    0.47835989261895
O           0.04998740865484   -1.53307731276076   -2.09168117225397
H           0.00695586215264   -1.95879524801346   -2.94834915226217
O          -3.13826459036761   -0.31753382543738    0.06498442038652
H          -3.92476591210491   -0.65728945498983    0.49157353122073
O          -1.60801580442299    0.42836647397211   -2.13368027920774
H          -1.21424752159489    1.09074643327705   -1.53681253687577
H          -0.59606084765757   -0.75356946318985   -2.13731659119272
H          -2.38162025561187    0.12639252919382   -1.63142057165163
O          -0.99725861503351   -1.81636422350702    0.58181877755228
H          -0.38530424397568   -1.24423093073149    1.07622271817845
H          -2.39860938356074   -0.91846254046006    0.32249843662803
H          -0.62599587011968   -1.90689675318054   -0.30610175542103
N           2.11905105793242   -0.66738711824731   -0.64412158628278
H           1.40515114990067   -0.97626533843570   -1.34671702476641
H           2.13992168246535    0.39988060840037   -0.52048775733943
H           1.74758174905240   -0.87665836436031    0.32041649165245
H           3.03506560916349   -1.06529969067489   -0.81632492936744
