    26
        -50.44999809  Gyration_radius:  2.60210160778 Dipole_moment: 5.579
 S           2.46441596755037    0.02130334178090   -0.29839523626724
O           1.50462802558016   -1.08251275272962   -0.29937607815664
O           2.23276300290418    0.91339394648799    0.83259775000246
O           2.64929362971235    0.67472948942948   -1.56335260208557
O           3.86410433744350   -0.70252828750816    0.02398533339084
H           4.51589430100581   -0.22923236888505   -0.48632888573420
H           1.08042707907623    1.40987072373522   -1.38258828349131
O          -1.90811750895815   -0.39593864351124    1.71218491189813
H          -2.64196441606377   -0.36997385176299    2.32680802227564
O           0.15216734512318    1.60773223750917   -1.19510311289853
H          -0.37040681407804    1.20797937771941   -1.90252425898421
O          -2.18236443201888    0.24631288926130   -2.26449193278237
H          -2.59911618202295   -0.10575320697308   -3.05103208686044
O          -2.15435065572841    1.62748398151896    0.14923198243451
H          -2.01464413188430    0.41921542325642    1.11946232432788
H          -1.23896596564936    1.86476839270846   -0.08717844548053
H          -2.50143163993690    1.27221095636465   -0.68452951375275
O          -1.12439722103126   -1.67491834222289   -0.75215178759869
H          -1.80654362731041   -0.52580562526812   -1.77755209868243
H          -0.16603272114012   -1.50852525744260   -0.74393188119720
H          -1.45193827697457   -1.41554173255724    0.11956591122948
N           0.71989851568158   -0.66312237437722    2.09658675727170
H           0.95949113803972   -1.21831948825026    1.23239056853159
H           1.28421164991264    0.20900306808589    1.82201804857960
H          -0.31350515306735   -0.48785068306090    2.09993252695627
H           1.04648379382277   -1.09398121335333    2.95377208708155
