    26
        -50.46305566  Gyration_radius:  2.55464789484 Dipole_moment: 5.325
 S           0.04703461705924   -0.55857678956601    1.02917881887267
O           0.10451769631113    0.86397423943579    0.71095305797280
O           0.24918979668072   -0.71075969938922    2.55960696631654
O          -1.23651106747328   -1.14451054636048    0.67278574915060
O           1.16048466106766   -1.27771938699688    0.40260585008719
O          -0.11411956916487    0.18647190312702   -3.16779934362344
H          -0.96625984852294    0.39686709676299   -3.55225716702822
O          -3.27456322577976    0.00265597524284    1.91645429561094
H          -2.59341368569131   -0.43529399580881    1.36165177241604
H          -3.74233289118325   -0.70284523435662    2.36638187014226
O          -1.22370873182093    1.33891335391472    3.01627105582116
H          -0.30050263025451    0.03636676321698    2.93597183690740
H          -0.83414782156106    1.65262666850616    2.18647652037111
H          -2.11051074860941    1.00170015417713    2.76767526352926
O          -0.49509182056870   -2.00901229135058   -1.71157617940066
H           0.33952640377463   -2.35859816021100   -1.38691410153188
H          -0.95383925521666   -1.72603533674457   -0.89498869219667
H          -0.24735849565906   -0.65345821853972   -2.66572275751581
O           1.04870351799364    1.89922401915251   -1.50876390558156
H           0.56135407413049    1.70142908114501   -0.67759371276287
H           2.16310854478211    1.02750539704517   -1.19693001041008
H           0.57904064570193    1.38609455845228   -2.20891198662113
N           2.84190922586942    0.21795392954786   -0.83701152611725
H           3.56085001577745    0.58647352910637   -0.22374979968845
H           3.25581058399159   -0.28527217356900   -1.61506927010984
H           2.18082997836715   -0.43617485594154   -0.27872460440117
