    26
        -50.46313910  Gyration_radius:  2.55784238809 Dipole_moment: 3.414
 S          -2.11045756784510    0.60486956618111    0.48293608798757
O          -2.23121477211894   -0.52257105593249   -0.40197313851868
O          -1.06662206898196    1.52418602743113    0.00990398444188
O          -1.92379884727576    0.27379230324346    1.88429448121012
O          -3.47034226794845    1.41459475265727    0.42209767058229
H          -3.47647095404635    1.82518991238429    1.28010817109722
H          -0.52503722070453   -0.45978219636531    2.09794066663370
O           0.35924702007906   -0.90935709093381    2.16170788986980
H           0.42454940039862   -1.22404424945533    3.06536999235873
O           2.70562161470272    1.52605355266935   -0.90465870181683
H           3.50176713407490    1.02088776017764   -0.73573035251172
O           0.80217979729994   -2.06613956674319   -1.90825571641015
H           1.67541521988547   -2.39854639790614   -1.69595871002305
O          -0.64891940911083   -2.58085108760164    0.18611602084421
H          -0.18251646633742   -2.15375462544575    0.92396505656877
H          -1.38043699494283   -1.96933381280386   -0.03110477383696
H           0.20461051813345   -2.37193634094835   -1.16671541439085
O           1.29306436670513    1.55901555120509    1.30923611557866
H           0.41389435195437    1.74203804576725    0.92851258649921
H           1.20316279333206    0.67051296628928    1.69120107254708
H           2.26230479803434    1.65061724010497   -0.02261910920382
N           0.42963865120810    0.56802418642600   -1.93111218579565
H          -0.25818349210834    0.89144798471923   -1.19178897865666
H           0.12529678693238    0.90122799098133   -2.83959167629207
H           1.36678770018991    0.97124905823790   -1.67466201001173
H           0.50645991849359   -0.48739047433039   -1.93921902875417
