    26
        -50.46060079  Gyration_radius:  2.48578767699 Dipole_moment: 6.142
 S           1.40060422810859    1.40829347034824    0.94350511298375
O           0.14053662750816    2.13095305356684    1.03194123267651
O           1.84963642433107    1.22135043087002   -0.42908215533264
O           1.38405426406725    0.18048801597815    1.71155938265690
O           2.49739436755354    2.34554389007852    1.61409698256031
H           2.23351914232778    2.36524869665646    2.52886759802612
H           1.97097995193515   -1.08301810484878    0.71228677329493
O          -1.42442848170261   -2.24133787757781    1.45883863868509
H          -2.28495502037346   -2.57523305268345    1.71545559367071
O           2.17096442789635   -1.35522687163665   -0.21128564803914
H           2.29595663630772   -0.47545065327810   -0.61765812357327
O          -1.58752211488270    0.09969261160130   -1.80329745626078
H          -2.18108807242143    0.19646091541717   -2.54881602820608
O          -0.22960606484477    2.28837755366599   -1.59543196276401
H           0.68162676025626    1.95627262900356   -1.47003260911029
H          -0.44103884404898    2.58123173534611   -0.69296204622463
H          -1.05170590482198    0.95264804916409   -1.76878113333287
O          -1.81436952992870    0.32001792946004    1.04340459754837
H          -1.49358299004701   -1.25229596904057    1.49608871031602
H          -1.10229847818691    0.97210806224125    1.19897679699877
H          -1.94726027769238    0.31233991608954    0.08557766743097
N          -0.22230276074643   -2.08458984083117   -0.90255149795559
H          -0.70178044849181   -1.27267894090273   -1.34208293622964
H          -0.24234299911702   -2.89478564269149   -1.51179891002391
H           0.80285568044585   -1.81091368032913   -0.66074290319101
H          -0.70384653343232   -2.28549632566970    0.01392432340327
