    26
        -50.46060084  Gyration_radius:  2.48576822412 Dipole_moment: 6.138
 S          -1.90182912197539    0.97378160432961   -0.51923544780247
O          -2.14270784637294   -0.39987513378252   -0.93494452948935
O          -0.86341587595208    1.62755942722280   -1.30347818124299
O          -1.69461529085946    1.08641902355130    0.90980970031862
O          -3.23566726077252    1.77650110336788   -0.84685709259443
H          -3.86979655243750    1.39380961450495   -0.24839199614677
H          -0.28524072662416    2.02730761719247    1.17369599401109
O           1.63124100395413   -1.32436460370048   -1.16949767675132
H           2.25747087116806   -1.81994129721268   -1.69842048551047
O           0.64733438786218   -1.15912224253220    2.72352183148765
H           0.85872275138590   -1.96777193182521    3.19183443187410
O           0.52809372481066    2.39521382443008    0.76125895554185
H           0.24696060270690    2.40531614741250   -0.17452036671439
O          -0.20711593347444   -0.44137458231674   -2.75639024181982
H           0.94783857622723   -0.96775860539409   -1.81881571783125
H          -0.29387891316512    0.49100115555913   -2.47444174611344
H          -1.01533519219556   -0.82208505245963   -2.37344484813052
O          -0.57278787467418   -1.96441362079952    0.54449447111077
H          -1.25850702520076   -1.41426746228257    0.11602490932955
H           0.17339828243114   -1.96543353917921   -0.07060350071395
H           0.01123358418332   -1.41716908944359    2.00718080214018
N           2.03537528339589    0.29445848838338    0.98953448202220
H           1.45447424077302    1.20884713849083    0.88520132870480
H           1.95639058755222   -0.26626750856417    0.11677031991419
H           3.00381206092332    0.50763476621344    1.20090073164162
H           1.58855165632394   -0.25800524116800    1.76881385276880
