    26
        -50.46861832  Gyration_radius:  2.4555745062 Dipole_moment: 5.505
 S          -1.61592928827259   -1.46714844157552    0.04079801621898
O          -1.74606053071616   -0.32187330733239   -0.85754485940188
O          -2.32915025032427   -1.33541766343201    1.27553550810691
O          -0.20623048773055   -1.81980891829213    0.20629519177897
O          -2.27301985497465   -2.69699886522949   -0.72667292283957
H          -3.04491026688433   -2.86186210715695   -0.19493871416523
H           1.17325718877483   -1.46135228405253   -0.54429790481969
O          -1.32706634099102    1.70134566562463    0.94629226126952
H          -1.72206872484293    1.06273003109699    0.33388274888247
O           1.99250828551184   -1.14486597279074   -1.00066654249488
H           2.54794289835713   -1.91615521378236   -1.12027008728267
O           0.78295994387806    2.65085574364742   -0.34001916258913
H          -0.05286635502767    2.53752440637330    0.17436111587224
O           2.24892953428374    0.86715588390019    1.00209567377678
H           2.33534787498593    0.15046188534840    0.35691071000770
H           1.46498416093668    2.19548306466877    0.20516627885462
H           1.62745390696745    0.54889381925779    1.67039199485087
O           0.02919008262647   -0.27023300709259    2.34944209765377
H          -0.03488753463316   -0.91527003711800    1.61804337281430
H          -0.88350443267061    1.16020044909389    1.62123737646588
H          -0.66381121753790   -0.52816768307789    2.96230106158824
N           0.34392571895428    0.77034916255544   -2.03033185211584
H           1.11660415609667    0.09788844346568   -1.91251710613557
H           0.55186595821166    1.64990422896545   -1.39312081036317
H           0.21363657534150    1.02718282869144   -3.00185286150810
H          -0.52910101039803    0.31917789821424   -1.64052060441466
