    26
        -50.44837919  Gyration_radius:  2.46663572412 Dipole_moment: 6.054
 S           1.12981639239467    0.68772246833594    1.78544185522055
O           0.97871574699822    1.59963204980001    0.65439447946962
O           0.91389634137793   -0.69994590149309    1.37522352449532
O           0.57288926447968    1.07982403510383    3.04486984386682
O           2.74737761203264    0.71436729093095    2.02162136047404
H           2.87974597761248    0.97762805864498    2.92864104395493
H          -1.15843535771918    0.95582221037793    2.32682462759559
O          -1.49714760078704    0.81172301751910    1.43922980167531
H          -2.29721993927344    0.27840537839973    1.48568177829951
O           0.15629892159397   -0.64757863707300   -2.51782260868759
H           0.03789607248796   -0.51461812171217   -3.45858959896571
O          -3.11316613969456   -0.56329992579364   -0.40538053826036
H          -3.69576426189916   -0.99262272314617   -1.03257730065004
O          -1.09351191309963    1.19822570470655   -1.26636459811026
H          -0.55758437729653    1.46267099147097   -0.49903781582487
H          -0.38033849448746    0.08848507136144   -2.05909139167751
H          -1.88693614514901    0.78778136651278   -0.87451848561168
O          -0.88572890820961   -2.03297959673941   -0.20220119262627
H          -0.48979469592923   -1.79136366254343   -1.04892553122734
H          -0.34830924100175   -1.59512049066169    0.48155974438295
H          -2.35826307371297   -1.17971679217893   -0.25928119079345
N           2.11405708254235   -0.13899176114508   -0.82693702273910
H           3.11048556110345   -0.18182145221817   -1.00578681997004
H           1.81677322104061   -0.71381930490434    0.00855926458097
H           1.79226623408395    0.80469704097813   -0.44476548321432
H           1.51198174051214   -0.39510629453275   -1.65076775565599
