    26
        -50.45446072  Gyration_radius:  2.74243820084 Dipole_moment: 5.613
 S           2.18812828475913    0.89905633776596    1.60978795349591
O           1.94718905637510    1.58216974055832    0.36444330022295
O           2.34238397168622   -0.55116270776466    1.43610147675498
O           1.20147473091061    1.19167484772816    2.64055911104463
O           3.58087498216885    1.41681481943954    2.16680501038296
H           3.64767426703882    0.96535830684452    3.00288334424383
H          -0.28292878627777    0.81536725186109    2.26166347548513
O          -1.17815454948843    0.44634133361398    2.01526234925077
H          -1.64993048855818    0.33987875739375    2.84244805631950
O           0.32492776812386    0.88363519494447   -1.57880096766123
H           0.99970099740262    1.29641829111854   -0.99710728433175
O          -2.25215983237050   -1.55337421566722   -1.26318070260400
H          -3.10347303582139   -1.78105745070357   -1.63882166148034
O          -0.35331738535284   -1.18587237199214   -3.19715847678871
H          -0.04084338678048   -0.33971199098820   -2.82945677208221
H           0.35316365471917   -1.52187334466543   -3.74940543741218
H          -1.63383308894827   -1.49647036792474   -2.01391802980167
O          -2.10762237839650    1.16661452543138   -0.52342678148659
H          -0.54053195196273    1.26988154735761   -1.31409157835233
H          -2.32682918748118    0.24594507177835   -0.74426310646512
H          -1.90119478283897    1.16428488895094    0.42226930648193
N           0.14949788410984   -1.08532772303391    0.21106115258447
H          -0.54932093208581   -0.70468612301560    0.87757003365763
H           0.19657854373403   -0.42052100092201   -0.61345690348417
H           1.10212124314607   -1.02445703882776    0.70055857500072
H          -0.11357557778984   -2.01892657926814   -0.08832543297064
