    26
        -50.45446018  Gyration_radius:  2.74307490692 Dipole_moment: 5.609
 S           2.47395995154359    1.21270124688808    0.77068213740712
O           1.88709233033062    1.62228068242041   -0.47968366265976
O           2.65640564918037   -0.24199544979137    0.85767547307514
O           1.76850425612213    1.71377347668830    1.94241037802107
O           3.93271261910013    1.83456533460108    0.82975205066845
H           4.23331414477678    1.57019817564973    1.69407989743620
H           0.25845088989038    1.26915621186612    2.04673547741710
O          -0.64907428181120    0.85791065267024    2.12146871098478
H          -0.88867647634580    0.92763499361286    3.04659389021013
O          -0.13606733039304    0.53331788742964   -1.75053495280956
H           0.64118877538255    1.05864002416103   -1.46070571594511
O          -2.40735359544165   -1.78428822907123   -0.30258963704846
H          -3.31352522404609   -2.08263269630854   -0.38956639674067
O          -1.09920666628975   -1.81731390898360   -2.70258261288341
H          -2.00751019878935   -1.88003236749132   -1.18631127318294
H          -0.74881864928766   -0.91396052850697   -2.60251340862371
H          -0.51447602289348   -2.27158159039288   -3.30980283775829
O          -2.23203067247773    1.03018798163650   -0.17944502288875
H          -0.92523889250791    0.96703412844239   -1.35361312714987
H          -2.44818770758038    0.08321817052103   -0.14748232974671
H          -1.79258660437371    1.22480734298616    0.66076064789075
N           0.25519630910360   -1.01798005665908    0.38177690979144
H           0.05492564809618   -0.53984799538330   -0.54327333021028
H          -0.02643869299634   -1.99292550258777    0.35681273744124
H           1.29660888431056   -0.85767338217938    0.58300493420121
H          -0.26916846258372   -0.50519461222958    1.11635108306923
