    26
        -50.45872242  Gyration_radius:  2.53316815867 Dipole_moment: 5.616
 S          -0.43246352153028    0.59250599153730   -1.85623503255426
O          -0.23058470647857   -0.85789891244001   -1.78304744915199
O          -0.09505534461479    1.22819812771086   -0.60411478433407
O          -1.71597754575493    0.98170653893419   -2.38516493029805
O           0.66352487655487    1.06560496259409   -2.91707782807636
H           0.45285821117415    1.98300408045401   -3.06034449827462
H          -2.75390131987224    1.22629435273242   -1.08700427632793
O          -0.17622887563170   -1.17379518587636    2.12014905281203
H          -0.50036695090718   -1.76717548802695    2.79876806093416
O           3.23695674492348    0.45189809590875    0.71967575324211
H           3.91078242002732    0.38416191784969    1.39736193344337
O          -3.36649220027237    1.13841190574269   -0.32544555820257
H          -4.23466911676252    0.98769731889245   -0.70507489025568
O           1.04134483011371    1.38276666252436    1.79288074596633
H           0.59242003865042    0.61563836202064    2.17366224372657
H           2.47696908938897    0.95213363991899    1.13018880571228
H           0.57450582964986    1.53216647791366    0.94949815621230
O          -1.99177147549599   -1.08165965869478    0.28355255964215
H          -0.93539609258765   -1.06025652890575    1.47087158511009
H          -2.54268289823020   -0.27037443325813    0.23719250385570
H          -1.47355987914009   -1.08364274986654   -0.53768741386536
N           1.51766761474113   -1.46219577502596    0.03585631429945
H           0.86574545829396   -1.17342488690306   -0.76518251220551
H           2.27613175835578   -0.74331589270774    0.16901045903562
H           0.93307402533562   -1.46946515215312    0.90443335969302
H           1.90716902010089   -2.37898375086554   -0.15672234009042
