    26
        -50.45872233  Gyration_radius:  2.53333933247 Dipole_moment: 5.614
 S          -0.44069154334734    1.23210855771875    1.50720698976657
O          -0.07218069722807    1.36569957221390    0.11721527024027
O          -0.27317477518863   -0.14999728193194    1.96716326888521
O          -1.72096509398250    1.80938738918498    1.83331546037803
O           0.65279934191227    2.03702290315345    2.34793247618158
H           0.46136383475673    2.94784681527795    2.14724047522963
H          -2.73640655614509    1.58744958009257    0.51350582511155
O           3.25666612698620    0.09923631588716   -0.76725782201719
H           3.93671319463194   -0.22188480559913   -1.36083144665205
O          -0.17914682888113   -1.85698419521019   -1.55650638775182
H          -0.50985085732690   -2.64901847094767   -1.98196234996564
O          -3.34154421505526    1.24146788201747   -0.17721682345467
H          -4.21771033935525    1.25397465847268    0.21354208865942
O           1.09864367143083    0.62125026197414   -2.14902124770286
H           2.51463292729426    0.43186948093802   -1.34613608698755
H           0.63519351966187   -0.22290874597211   -2.23634649663341
H           0.62506778584722    1.07441585594695   -1.42659274955973
O          -2.01406186284629   -1.07329813099552    0.08573690826059
H          -2.54546257356557   -0.29024939837030   -0.17553823948359
H          -0.94310586540644   -1.50224522790621   -1.00760497684007
H          -1.50618890847576   -0.78751979166904    0.86249671580486
N           1.48113594022695   -1.40486980414604    0.52582326276546
H           0.90732297644745   -1.71451552670150   -0.29333494594209
H           2.25928020020849   -0.79757902070171    0.15773442943080
H           0.82698306813473   -0.83336655667621    1.15476948445041
H           1.84468754926687   -2.19729232600187    1.04466692780717
