    26
        -50.46709001  Gyration_radius:  2.46703287297 Dipole_moment: 4.129
 S           1.66474550243498    1.61345807279996    0.56120191506146
O           2.86142648384468    2.36943442556602    0.39350390137997
O           0.64121402146397    1.88194081372757   -0.46130629938684
O           1.00880848926744    2.10261460174037    1.94080549986604
O           1.82952165099740    0.17470412523313    0.72326268621102
H           0.59085238628102   -0.26745324704950    1.66117880392550
H           1.39209049857529    2.96944560068588    2.01250631933877
O          -0.21943766336977   -0.51186542723776    2.17225051749405
H          -0.03776237854380   -0.26791904569861    3.08067477338467
O           1.48209373741347   -1.93311792022454   -0.92823095456609
H           1.85951270247372   -1.32034694720225   -0.27186575362240
O          -2.31956482069168   -0.58587858557897   -1.20178125751482
H          -3.23242400779636   -0.49438196830114   -1.47484659531622
O          -1.69519209905283    1.15305635583929    0.61196127949208
H          -2.16687182393446    0.10149732902625   -0.48323942987175
H          -1.34338776543516    0.59649335864921    1.33192294101056
H          -0.90419114680253    1.58700643341958    0.23584774582084
O          -0.82387460371006   -2.48394619268893    0.29454468525349
H          -1.46893640960486   -1.99692391093073   -0.23797814314584
H           0.71433464493833   -2.35333624104634   -0.47117471630133
H          -0.69420721335684   -1.95603407034193    1.09670295698067
N           0.16765723882005   -0.07084212868090   -2.15032330999302
H           0.37304427077407    0.12545316204905   -3.12307527109289
H           0.75938615454493   -0.89927510496684   -1.76547561494969
H           0.39775383782851    0.76454233349884   -1.53946943692526
H          -0.83659168734463   -0.29832582228685   -2.00759723253148
