    26
        -50.45646134  Gyration_radius:  2.53559310598 Dipole_moment: 2.888
 S           1.05985554597870    1.60952979773054    0.85225856398385
O           1.41198831472847    1.78130418886904    2.23917606463150
O           1.55582681053470    0.34090277710160    0.30334704728200
O           1.80483199801243    2.74540878841103    0.03118540405543
O          -0.35213199882760    1.78042276953748    0.57898748862714
H          -0.96691131587335    1.25194982525141   -0.78848919135185
H           2.68541177443473    2.74540125033333    0.39450440376089
O          -1.36503260426412    0.86390779349176   -1.61100486238736
H          -2.06502347630498    1.46211699306249   -1.87544725627557
O           0.21572609934604   -2.61488203087647   -2.36667391443885
H           0.07606722849999   -2.86811875986424   -3.27941699721786
O           0.04604806954431   -1.45978086237293    1.25672916043867
H           0.75162986302464   -0.85786437136670    0.84970209046568
O           1.14227028890609   -0.12047407220549   -2.32838659689784
H           1.46455651476201    0.03518232830125   -1.42241454286445
H           0.69364993393649   -1.74972836794032   -2.38803079119167
H           0.28318075459698    0.32503334013949   -2.36086837963748
O          -1.56929770164400   -1.67115368576095   -0.64734480049651
H          -1.01293299458880   -2.17643926029293   -1.28656376515257
H          -0.67568063946271   -1.59810657707357    0.49412001713705
H          -1.61381242945328   -0.76528088554567   -1.01508090688606
N          -0.75822796196275    0.21576190802992    2.94778677103299
H          -0.37828503145284   -0.82274869131308    2.03750107519499
H           0.05566790590072    0.83968116011195    2.90044213011589
H          -1.54367624261095    0.73197349756204    2.57085370353088
H          -0.94569872576604   -0.02399884328600    3.91312806454068
