    26
        -50.45646154  Gyration_radius:  2.53573617704 Dipole_moment: 2.895
 S          -1.64981574760897    1.21637039789594   -0.49213269702033
O          -1.60871253647716   -0.08227880677999    0.19247217646546
O          -2.24339669404527    2.24636702458133    0.32263259845239
O          -2.59640998771284    1.00223620427437   -1.74806649763443
O          -0.35025360208439    1.56632272632063   -1.02715593488111
H           0.60550560221366    0.43356684704681   -1.60246962859728
H          -3.47123480090479    0.98524533818392   -1.37146868099703
O           1.22967141482652   -0.27860507685297   -1.90060577596333
H           1.72240365841298    0.09000077113766   -2.63483227012318
O           1.02360257649867   -3.34763704826102    0.48820242721715
H           1.37835862607939   -4.13195447537736    0.06909185924018
O           0.24919550651606    0.10124006123553    1.90869448519912
H          -0.54567375278275   -0.09205748822737    1.31145225677657
O           2.11225782731825   -0.93142115674503    0.58826198202465
H           1.85789676897311   -1.88273828045262    0.65010839010916
H           1.91039608623953   -0.67740728068818   -0.33498210288851
H           1.08235248048080   -0.31877695844295    1.40831397743171
O          -0.67188171182393   -2.19570382297973   -1.20899699290386
H          -1.16058187237930   -1.52836723104715   -0.69443101348285
H          -0.01393364056942   -1.68679714709452   -1.70467621224887
H           0.29461764991341   -3.02539769978119   -0.09666209051128
N           0.19009454404013    2.59327951511069    1.59456225404230
H           0.31619699107430    1.19189693900232    1.85794249767496
H          -0.76795097517772    2.64948896050575    1.22989590865803
H           0.30065765630323    3.24694212616827    2.35938567378082
H           0.80663791270402    2.85618557127039    0.83546343017116
