    26
        -50.45890666  Gyration_radius:  2.59829569731 Dipole_moment: 7.955
 S           1.45253449372755    0.57425335908898   -1.64098320497968
O           2.13349648841089    1.30534537686272   -0.57160205577518
O           0.01634781804927    0.65099490490777   -1.52841275896093
O           1.95117360765606   -0.79070793663004   -1.72998853580598
O           1.85073801498234    1.28499513509671   -2.99399878052665
H           2.77812292576073    1.08286163632913   -3.06401370162401
H           1.38742418776137   -1.71768843825380   -0.58754858554082
O           1.04674597389045   -2.20548193808837    0.21508523384637
H           1.48472810164282   -3.05828113887097    0.20940647962966
O          -0.76315453023790    1.26198931525379    2.45612923043821
H          -0.65503153001702    2.12924008839930    2.84927795842787
O          -3.48077093167471   -0.41782928082022    0.02228706852326
H          -3.59899233687230   -0.87880545063591    0.85399378945512
O          -1.38590475256445   -1.63187751945272   -1.15446001003956
H          -0.94560809578469   -0.82276099634739   -1.47107656270671
H          -0.73753916592804   -2.05113122243707   -0.57510771476386
H          -2.82030435926730   -0.93506874352433   -0.48905092439851
O          -1.82910665137198    1.71682126458444    0.16963271528811
H          -1.17525181085334    1.46599694705307   -0.50598202816412
H          -2.55962043717812    1.06984345638385    0.06957061572563
H          -1.23408820871726    1.43069029658319    1.57360232141368
N           1.42493294398276    0.10011320362718    1.59949228314644
H           1.74519445218899    0.66209127803268    0.74185313128007
H           2.15758372494183    0.08065489109549    2.30125468571695
H           0.53706744858924    0.55452818803610    1.99058833205703
H           1.21928262896397   -0.86078667628051    1.26005101830500
