    26
        -50.45890657  Gyration_radius:  2.59850434226 Dipole_moment: 7.950
 S           1.17114839383593    1.85219945286620    0.57457807694351
O           1.00497808806500    1.35124590061428    1.93939031449243
O          -0.00590966299046    1.64246054342997   -0.23282520009823
O           2.38455009477380    1.31731904716128   -0.02647709471200
O           1.38159299985725    3.41320883106886    0.69144727994478
H           2.23307369419007    3.47266590164573    1.11244782812188
H           2.22274074390283   -0.18163309550731   -0.48270524815345
O          -1.92537995180099   -1.59911321072302    1.39938752843543
H          -2.45149042061226   -1.50689727864880    2.19504917884685
O           2.05545197809298   -1.15007423075829   -0.66285268555793
H           2.89870867037035   -1.51571031068714   -0.93555842365152
O          -2.43068717607116   -0.58170969922040   -2.45823429266182
H          -2.44514350938273   -1.53975267442862   -2.47005089026508
O           0.18050732578486    0.07290596053295   -2.42814449165863
H          -1.49453134430915   -0.31766876481953   -2.59638630513420
H           0.11474318184423    0.78412303331711   -1.76588108898566
H           0.78633056734900   -0.56861554253306   -2.03674485477156
O          -2.46440596044590    0.49419549795482    0.02144651233742
H          -2.17530594820803   -0.80098451881350    0.82529913648835
H          -1.65106849122750    1.02673933128570   -0.01946106099197
H          -2.61741289934908    0.19161354191141   -0.89898226264150
N           0.65099041301226   -1.19187338228214    1.66070849669412
H          -0.39486518232599   -1.40259114211580    1.56319127646107
H           1.14273260205762   -1.38500821908216    0.76509197960217
H           0.77052453118406   -0.14176548094417    1.85150829613596
H           1.05812727243261   -1.73527950125256    2.41475801476879
