    26
        -50.45653063  Gyration_radius:  2.55870081792 Dipole_moment: 6.245
 S           2.50539172457884   -0.01745608663915   -0.53203371486998
O           1.36731376889956   -0.02221349609339   -1.45092978057220
O           3.67992548695015    0.61378562112648   -1.04408507604737
O           2.89784415854912   -1.57212976634635   -0.32905131527528
O           2.06856893535262    0.42887021860970    0.78882285570728
H           1.03463777627090   -0.78318944831719    0.85719615745461
H           3.69420275153074   -1.63269545969127   -0.84705820046470
O           0.42522066786151   -1.55946471411716    0.91687265483273
H           1.01782133473907   -2.31217399089071    0.97305208120728
O           0.16981739638545    2.17433670408186    1.53874821119674
H           1.00605564216228    1.67633269857584    1.46910542478937
O          -2.76880724722473    0.22123883971082   -0.63838125731014
H          -3.58650560681774    0.21397461029961   -1.13673532365411
O          -1.54345155876607    0.14038056167537    1.98547448733196
H          -0.91326234790691   -0.56471413336655    1.77671745515184
H          -0.46636595611568    1.54740244595562    1.94769357364043
H          -2.13861606384456    0.20180196375504    1.22801270921688
O          -1.41605595112329   -1.99915264283622   -0.99186905789212
H          -1.75119165143136   -2.82344433836859   -0.63440475824082
H          -2.31160505154749   -0.63985467884106   -0.82547780443747
H          -0.61539395705535   -1.78090442804077   -0.46629028544071
N          -0.48658852130391    1.71553050220172   -0.93640592328518
H          -0.24539686199699    2.03994706501986    0.06627676892297
H           0.26050830720095    0.99414486861093   -1.20198990102084
H          -1.41373844293111    1.25166179424663   -0.92097450593817
H          -0.47032874241796    2.48798529967916   -1.59228547500740
