    26
        -50.45271658  Gyration_radius:  2.43405879823 Dipole_moment: 9.063
 S          -1.37894633125913   -0.57159609273263   -1.79247763469603
O          -0.03399669869071   -0.67817564401677   -2.35749602327491
O          -2.09341059114080    0.60959662318427   -2.16897965050523
O          -1.32796727526750   -0.75941271564595   -0.34169503402266
O          -2.18559586090004   -1.82307903695407   -2.35864605955378
H          -1.68895890471844   -2.58048809908779   -2.05958604480782
H          -1.59991356479700    0.72079726797300    0.07077422453490
O          -1.60571557102436    1.66573952512176    0.39203764489741
H          -2.37927695562603    2.05149059836840   -0.02317432011454
O           0.19236395146930   -1.95864247902066    1.94120114256316
H           0.90297076145731   -2.44838304522446    2.36033192377721
O           2.22926095736204    1.00737745579781    0.48186047559628
H           2.97723996153982    1.60527878432600    0.46475774965711
O           1.41990516046695   -1.66806709566952   -0.37206553691401
H           0.42500150729142   -1.92916917183229    0.97565774502246
H           0.87622897447245   -1.38864891325727   -1.13911026956164
H           1.94498215404967   -0.88970640444291   -0.14835169565760
O           0.60381486601975    1.70274919717859   -1.38656403104797
H           0.41965281768033    0.89876907946469   -1.91573225103625
H          -0.24106746168968    1.92491570030922   -0.96600957742651
H           1.63850905489005    1.28286053607786   -0.29017330683794
N           0.17757347981636    0.65994954615527    2.15359360183415
H           0.06142947654895   -0.40386442354352    2.12201785619902
H          -0.61396334584256    1.09472059040159    1.64174761390040
H           0.22765970383767    1.00271253184530    3.10666320299976
H           1.05221972450762    0.87227567530670    1.60941825439502
