    26
        -50.46305565  Gyration_radius:  2.55490877515 Dipole_moment: 5.329
 S          -0.68532402835244   -0.14022242790109    0.94026725603285
O          -0.43622834186732    1.29186904903229    1.13107980215375
O          -1.99045330267359   -0.45285398211177    1.71814470864059
O          -0.92168330042479   -0.44190149742934   -0.46738791283257
O           0.38860733405725   -0.94911332647199    1.49702250634890
O           2.60481535592624    0.95746612424514   -1.54474205248963
H           3.24083828460287    0.27759350219594   -1.77160951560422
O          -0.09148367140759   -3.54948500481381    1.34149669506542
H          -0.01416303628547   -3.88795211421175    2.23508365642444
H           0.20192292727367   -2.61357873210555    1.38050006927636
O           0.13451614491828    0.83335381175115   -2.50371115800199
H           1.09755598847918    0.83550469066579   -2.28759812647128
H          -0.26361672484635    0.17722719744911   -1.88840227979202
H          -0.33943979642257    1.98504897529956   -1.76448832353997
O          -2.37792834842571   -2.57447149216887    0.32968436401969
H          -1.97411509826697   -2.04266022262836   -0.37234407454537
H          -1.65680158321207   -3.15468954574825    0.65404685254304
H          -2.29945299895414   -1.31141783144056    1.30655385049640
O           2.30715848107653    0.82319589281306    1.09705859171497
H           2.53051786540251    0.93626362150187   -0.56020429474458
H           1.77658821270180    1.55515003575659    1.42400771601756
H           1.74712844815595    0.04109928185215    1.27631870337662
N          -0.67564964531771    2.71813451498570   -0.99258194389139
H          -1.63177568694857    3.01362536410559   -1.15761321008233
H          -0.05321282232462    3.51865660740698   -0.95269147290847
H          -0.61832065675196    2.15415751807654   -0.06789039708468
