    26
        -50.44985197  Gyration_radius:  2.67259651843 Dipole_moment: 3.396
 S          -1.60616120153030    0.60835391487620    1.84004972901160
O          -1.54883038295044    0.14977777868023    0.46105800800411
O          -0.36491287031545    1.29542707949701    2.21271512447389
O          -1.98363729560136   -0.39738790869727    2.79920353254148
O          -2.74606237293127    1.71046177361030    1.86435569759478
H          -3.03312842418019    1.71406856615052    2.77199609725557
H          -0.46584768892704   -1.15638729178208    2.99103671312127
O           0.49515465000566   -1.33495826336848    2.94191988597431
H           0.90855846327673   -0.55848142162726    3.32790409996958
O           0.16223916510117    0.40016098297970   -3.43242119132621
H           0.79913723282659    0.80957007537767   -4.01937503039919
O           1.27109948088824    1.29599293529952    0.32963981342084
H           0.67556772659946    1.42434413458972    1.17038566986446
O          -0.49868166239842    1.81624565994845   -1.30915746820204
H           0.58468979751923    1.62607320704015   -0.46696411002507
H          -0.32914361987699    1.31982253199711   -2.15198476578668
H          -1.13977709302063    1.27963081972192   -0.79599285886757
O           0.72608992317209   -1.19355794659521    0.31286991179334
H           0.80019188364803   -1.44525473732482    1.26366231754767
H          -0.21041507987371   -0.91731991312776    0.22266337283702
H           1.26759151786799    0.27445676077226    0.24408341086175
N           1.32764535548448   -1.84170648468864   -2.49758863307132
H           0.57140096769368   -0.44506939969746   -3.10824585474350
H           1.19019734475788   -1.77662919311685   -1.49169389744696
H           0.83198458079935   -2.66461524501081   -2.81723372109539
H           2.31504962196080   -1.99301840561875   -2.66288586324065
