    26
        -50.44985176  Gyration_radius:  2.672852196 Dipole_moment: 3.403
 S           1.30763399212580   -2.01255215377851    0.76112902049449
O           1.69277018212926   -1.85138438574633   -0.64510492461550
O           0.13123475643841   -1.21490935754989    1.06916923918479
O           2.41957452473292   -1.82632582920266    1.65724281642291
O           0.84146211718936   -3.51969433853413    0.92199561792171
H           1.65210341540090   -3.98592465041946    1.10015729944613
H           3.06405470901007   -0.39811824327071    0.97785499086906
O          -3.33415383668143    0.89015518067757   -0.23718810694648
H          -3.89420296098860    1.17456970078083   -0.96057550240681
O           0.18816680467839   -0.24434496465442   -1.81776492093517
H           0.84920485433557   -0.97040592287933   -1.47979793016719
O           3.23010871922741    0.34252174116628    0.36007304019591
H           3.46150726182825   -0.07929701832397   -0.47135666864256
O          -1.81007911029127   -1.20335558342562   -0.73289792290420
H          -0.77308941473977   -0.65761449371332   -1.47324103012054
H          -1.29153230559920   -1.37784952423565    0.08122520302942
H          -2.44838486345067   -0.47717263458897   -0.50786136208902
O           0.73852368557126    1.21014244730212    0.20132385065878
H           1.71996566912025    1.13823853425126    0.26739120720753
H           0.37724370243262    0.51376551417008   -1.15410260184912
H           0.41817474597892    0.45840573334227    0.74324852701195
N          -1.65131917251595    2.93265908120179    0.26784078117601
H          -0.73836320397225    2.48449150147650    0.29197021230759
H          -1.82214787729547    3.31911261488862    1.18795410633699
H          -1.59680458776586    3.70439646833323   -0.38539598834997
H          -2.73165181660129    1.65049059276825   -0.02328895335628
