    26
        -50.46770719  Gyration_radius:  2.51911046968 Dipole_moment: 3.830
 S           0.63453031805424    2.03703333942982    0.46210796911353
O          -0.59482230059486    1.73022742748468   -0.25386474863645
O           1.78586629165181    1.35704337294782   -0.10468723871068
O           0.49587442535277    1.82124461825586    1.89079508769235
O           0.90385992533207    3.58196676630536    0.25920728851895
H           0.16777016833124    3.98384876458992    0.70939872197550
H           0.17880407985349    0.32842226241521    2.33182148652494
O          -0.00526147342643   -0.63408608206712    2.50699990084718
H          -0.01137145228688   -0.73642084034593    3.45987290143191
O           0.31778068377968   -1.87931784752759   -1.83199297993621
H          -0.62944590990276   -2.05491978291076   -1.61368832108471
O          -2.22443659581629   -2.04982571132620   -1.10843538956755
H          -2.85226296394966   -1.75051580478493   -1.76740429190774
O           0.43320608330884    0.70696838093033   -2.48157886714085
H           1.33278408061342    0.98910070910608   -2.29279135143858
H           0.32848269963542   -0.98691884565602   -2.25119081175518
H          -0.09460860214329    1.10442197259517   -1.76136834959766
O          -2.17747858530546   -0.18554962108045    0.78139233884087
H          -1.71612901271396    0.57428663675061    0.37979357535983
H          -2.27172900970623   -1.39285356843390   -0.37178121216688
H          -1.60530143950059   -0.47874433047795    1.50368296616096
N           1.53376983409482   -1.23116346528342    0.32810571606847
H           1.00251666947592   -1.59923739313823   -0.57190886317182
H           1.73971777316217   -0.21096076794751    0.15559218137002
H           0.93320765761843   -1.27679744242194    1.16808424907311
H           2.39467664506502   -1.74725274723933    0.47383803213875
