    26
        -50.46305533  Gyration_radius:  2.55519181329 Dipole_moment: 5.325
 S          -0.09776854909604    0.59563031180266    1.00239262531522
O           1.01303698962040    1.40722840408574    0.52811838159633
O          -1.07285185695692    0.33605898685823   -0.05114046243314
O           0.36805762593186   -0.65901798727227    1.60115885060766
O          -0.82040767273491    1.36639238426241    2.13829222947701
O           1.48970867215322   -1.84222750420840   -2.11905177545205
H           1.83743722366561   -1.40784180169441   -2.89919593129824
O           0.24900281848194    3.76812883518130   -0.39877406127963
H           0.74738991195279    4.42120620918389    0.09536608886028
H           0.61712898508392    2.89542823951473   -0.14105459995662
O          -2.10624936821710    2.78693618247118    0.43285044399376
H          -1.38968961145871    3.34500320519188    0.06259842060114
H          -2.08014384153244    1.96931268643253   -0.08624089087154
H          -1.38936040117792    2.02231634935988    1.64046612928140
O           2.61349884326028   -0.61764812430434   -0.04012191698101
H           2.41046809929062   -1.07693115810801    0.77972000009212
H           1.94281023856814   -1.41674037232899   -1.35152531385307
H           2.15269897569843    0.23933756895424    0.06217530169401
O          -1.11305991110215   -1.77692070499891   -1.60834612273220
H          -0.18624163666135   -1.82316925574866   -1.94420687262217
H          -1.00437374486003   -2.45918994268081   -0.33491586329741
H          -1.19579194086831   -0.88186980541495   -1.20894077980761
N          -0.80672015497916   -2.76709961596771    0.71956271302458
H          -0.17925916897706   -3.56381644924971    0.75708545996552
H          -1.67065770758117   -2.96599453854394    1.21233639014547
H          -0.32866282742277   -1.89451210289550    1.15139154591190
