    26
        -50.43911256  Gyration_radius:  2.55846015655 Dipole_moment: 1.180
 S           1.87051342095095    1.00495893486826    1.03449000613364
O           0.96137623112621    0.38994606585119    1.94461398103731
O           3.11364051411119    0.36786361924386    0.77029853727333
O           2.19396554904500    2.44733090889871    1.62404599723547
O           1.17386664165916    1.34476268471418   -0.28439228947908
H           0.18321721181305    1.58198602003477   -0.16209729198188
H           3.06009420870969    2.68699397149909    1.30092496805618
O          -1.79396078689959   -1.76146008856215    0.35819944941809
H          -2.53472607425003   -2.36769902496433    0.32331644772953
O           0.45799295114395   -0.89750010591297   -2.78586618290510
H           0.45092667604729   -1.69169602433930   -3.32222202840758
O          -1.25567573118724    1.95777266148248    0.08665634598204
H          -1.33101578816136    2.85544986059974    0.41507516062099
O          -1.90240787174533   -0.17723266599593   -1.74009830184046
H          -1.78207559078562    0.69990371885521   -1.36030055158850
H          -1.06973115459577   -0.37362510083738   -2.22429073756036
H          -1.85425376990285   -1.20689042291403   -0.46708206652003
O          -1.73490999284216    0.34533994001298    2.01052974785127
H          -1.53847799785794    1.34336066199719    0.85193203421652
H          -1.86082798507280   -0.49733690656850    1.52030091701809
H          -0.80848944999287    0.31676470975024    2.29803073970500
N           1.24159136957905   -1.74752734480006   -0.33628767515675
H           1.87321988027155   -1.06360186828985    0.06211265791998
H           1.66520649413014   -2.66002124676546   -0.21715975228521
H           0.38460219296890   -1.73988814325854    0.20793999119631
H           0.83633886174319   -1.15795481460302   -1.90867010367205
