    26
        -50.46225833  Gyration_radius:  2.49609711924 Dipole_moment: 6.731
 S           0.75260093239944    1.26427807863450    1.39224791984212
O           0.07632632109908    1.31023561734982    0.10886384082720
O           2.13820648230529    0.82764327484438    1.27652270985498
O           0.02899979229325    0.48179594326266    2.37716761292975
O           0.78936356213952    2.75331727780799    1.91530398810660
H           1.29142369854896    2.67539938233665    2.71971848995832
H          -0.05156050998381   -1.08571935014348    2.06681828202242
O          -0.06507561720226   -2.03138419278998    1.76022099714757
H          -0.14320039376761   -2.56708443862350    2.55088355395149
O           0.93035710218675   -0.13502806172399   -2.07223154688009
H           0.74587722306750    0.63697646711309   -1.51348675427332
O          -1.93435979319153    2.03181235576845   -1.70623591614203
H          -1.17871381723190    1.97593466730015   -1.10364189554986
O          -1.59271948403337   -0.57021549964349   -2.59781341414584
H          -1.85451116902428   -0.79792491380939   -1.68527399437006
H          -1.81065941964766    0.37493962101625   -2.66725237848860
H           0.03051019249577   -0.40841233525704   -2.40783410677707
O          -1.89890010827905   -0.60878563212894    0.10376171494128
H          -1.27141937542167    0.12480366024676    0.21566508194296
H          -2.71151067373786    1.89416018600237   -1.16003044516421
H          -1.56154965353428   -1.32214781184115    0.65602554982841
N           1.87119708779788   -1.40068514797617   -0.04654256869562
H           1.46280757469464   -1.01178707134661   -0.98426551340090
H           2.13228149843797   -0.52962491780340    0.50223475353015
H           1.14609577285839   -1.88919710510115    0.50799177366215
H           2.67813276343467   -1.99330002019375   -0.20881774636700
