    26
        -50.46710412  Gyration_radius:  2.43634371566 Dipole_moment: 5.127
 S           0.89552568554228    1.61537469312916    0.41299011389577
O           0.39993532132741    0.94779966353982   -0.77326911079659
O           0.37597745172243    0.97803645614750    1.63074391216355
O           0.81382496210450    3.04234763910739    0.42049009920598
O           2.47099041039325    1.25515802412560    0.42448117754918
H           2.86770443858464    2.06074267699981    0.74098661340798
H          -1.35560723652644    3.13559318054076    0.71151029801045
O           2.40662230200335   -1.56338579623656   -0.22505043470841
H           2.65030650901145   -0.63676821016875   -0.10476967298614
O          -1.84497841475145    2.38158493182513    1.05587334784984
H          -1.17091178820025    1.85696193761885    1.51245998947005
O          -1.79715663490616   -1.84845601820051   -0.62725633330461
H          -2.62691880532569   -2.32562945553230   -0.59799130552522
O           0.63106878968494   -1.34625999981753   -2.18396846375689
H          -0.20964395320162   -1.75006732420988   -1.93740165404322
H           0.55857717572555   -0.42102819063455   -1.89412668437325
H           1.94067230363859   -1.60431881051482   -1.09428013754471
O          -2.24248098944667    0.68178595839917   -1.03368571398644
H          -2.46747698833234    1.25084368085927   -0.27592927267190
H          -1.29934287638707    0.87953507506176   -1.17929670790687
H          -2.03337719426114   -0.88978630806166   -0.80043994087816
N           0.19355771227846   -1.56460487106093    1.17986914482401
H          -0.60253243370018   -1.75036517997116    0.52841891911573
H           1.11862401151831   -1.71905542011750    0.66555222386530
H           0.19930198349874   -0.52802537872907    1.43037890123514
H           0.12773826754529   -2.13801292384384    2.01371066188500
