    26
        -50.46166218  Gyration_radius:  2.51020795892 Dipole_moment: 6.139
 S          -1.28977628679997    1.46532463207084    1.09583428959710
O          -1.55680969618203    0.04619401974215    1.19417737434115
O          -0.68857550412556    1.81664809234773   -0.18733449983874
O          -0.52395560417783    2.00469618770465    2.20123872642538
O          -2.70342562865425    2.18102588509454    1.13572688275433
H          -2.46889955492038    3.09982425772537    1.21833573794550
H           0.95577492375886    1.54839548846535    1.70068733091243
O           1.82396009808968    1.14667057241364    1.45883953315746
H           2.46696451432662    1.57233547553915    2.02932575381905
O           1.08154696126458   -2.18286504553234   -0.17411430120119
H           1.79063215810957   -2.82332794241415   -0.11231705230755
O          -0.57214589579680   -0.50654995098291   -3.31656674285684
H          -0.54935369004229   -1.24936593848200   -3.92116125120977
O          -1.55573815788950   -1.45567104308316   -1.04319533475167
H          -0.80850883941369   -2.00249902002708   -0.76902824567844
H          -1.72060540664388   -0.86566181380512   -0.28304361610890
H          -1.12186663032887   -0.79657399636005   -2.54731082678765
O           0.59761742495785   -1.20227534137894    2.15844945971169
H           1.18514353591482   -0.42813718953489    2.08905623389086
H          -0.29572672883023   -0.83956479930000    1.99806721600759
H           0.87308036522879   -1.90457583700131    0.77094614739085
N           1.04405669460808    0.27407573958704   -1.34589460206614
H           0.35063034675435    0.89775547107908   -0.81697495030965
H           1.15323856864353   -0.63378646564985   -0.84299907773146
H           0.60211235130634    0.07749993648635   -2.27313464330404
H           1.93062970084973    0.76040864529773   -1.41760955179681
