    26
        -50.46166229  Gyration_radius:  2.51003607567 Dipole_moment: 6.136
 S           2.03434275251250    0.81348368374168   -0.46020514285544
O           0.97850869138246    0.83067849537102   -1.46845117693692
O           1.88815228185058   -0.29985429105940    0.45296758523834
O           2.16298275805879    2.10241577830173    0.18905551375167
O           3.39095311237053    0.56492182776588   -1.24117965793808
H           3.51229513527498    1.38333553328196   -1.71187773156767
H           0.58558757829588    2.37093010682778    0.48479534055766
O          -0.35147513785748    2.45593798981282    0.78224999653371
H          -0.43809341267723    3.36097197410384    1.08810046062514
O          -1.58808081931506   -1.03880764477748    1.53858835838547
H          -2.30707472923878   -1.07903590756715    2.16964899655836
O          -1.44561412077053   -2.12286437659661   -2.23272747550870
H          -1.99812453270694   -2.90450068674717   -2.19309667827115
O           0.31451715782917    0.41595653738789    2.48752118088502
H          -0.84181668140943   -0.54129072154800    1.99636283342122
H           1.04805283920559    0.11355986461567    1.91659363888494
H           0.03380801316987    1.25918407452205    2.08830190116040
O           0.26766509699479   -2.34579733603237   -0.21911568022821
H          -0.34184117343183   -2.20667595284925    0.51686095462533
H          -0.68390638661081   -2.29484815019952   -1.62605484716679
H           0.97250311311390   -1.68419532216508   -0.08310043684484
N          -1.46484619250450    0.18101327866325   -0.89213690181479
H          -2.06732215658820    0.98417628127938   -1.03219607755159
H          -1.54948444952969   -0.18705678908272    0.08067429796485
H          -1.66109602375556   -0.60577650994238   -1.55238859076994
H          -0.45059269367937    0.47413827287917   -1.07919066113781
