    26
        -50.45059460  Gyration_radius:  2.46316072812 Dipole_moment: 4.140
 S           1.52113908082782    0.58213180271231    1.16244398594042
O           1.89399859232448    1.41664666290897   -0.07427574210017
O           0.09336072565106    0.71237564521679    1.38213691944845
O           1.79992455429402   -0.87535894772069    0.70182167544757
O           2.34704455316009    0.89172970578130    2.26842803440198
O          -1.35618360974215   -0.10408536374059   -1.79943565713288
H          -2.08783660926153   -0.29712735706869   -2.38625056392067
O          -1.18942375664336    3.04305890192474    1.08435930351863
H          -0.78398342432895    3.69965744491216    1.65268684596251
H          -0.84487918410642    2.17602850344722    1.37166730303629
O          -0.15095887387462    2.26123879566124   -1.24584220951630
H           1.04881083691725    1.78765321787763   -0.56634958704012
H          -0.68401833931467    1.47740927012163   -1.48928212808283
H          -0.64030971046213    2.70267258542991   -0.51697167218352
O           1.22143563490469   -0.79989313184870   -1.79842807132534
H           0.25961814221397   -0.61855133535621   -1.89157542156918
H           1.67934446706987   -0.01112677994403   -2.10223074884495
H           1.57858450465876   -0.91385593439214   -0.27916344878219
O          -1.80679724185187   -1.02879969592117    0.54645566440401
H          -1.32662665839791   -1.88597183785245    0.62431514869316
H          -1.25391852470853   -0.38871546263840    1.02612082954598
H          -1.61102136798646   -0.47025752790261   -0.88938068429773
N          -0.14503934520979   -3.17861366718678    0.77060415301814
H           0.06184868521505   -3.69811117134330   -0.07318739452266
H          -0.30403991326834   -3.84455843119458    1.51596850715753
H           0.67992678192289   -2.63557592188005    1.00536498874306
