    26
        -50.46305554  Gyration_radius:  2.55473271637 Dipole_moment: 5.321
 S           0.23515127632766    0.65187571613587   -0.94526494147016
O           0.40897910860072    0.93814717038289    0.47461975271733
O           0.63782937282624    1.92266520418689   -1.73841057561116
O           1.07551279428038   -0.45192516816132   -1.38484298602383
O          -1.17698773062294    0.41244849227842   -1.25878955158398
O          -1.13526449669598   -2.54105021795206    1.53081191970662
H          -0.49223921202007   -3.18174813928161    1.83800035155280
O           3.65728962414952    0.00372044271438   -1.00525949391132
H           2.72470359122746   -0.28009738921550   -1.12048264779863
H           4.07593483198835   -0.11127510012222   -1.86000985418958
O          -0.75804196697117   -2.33286738504629   -1.09582139105992
H           0.04751307968123   -1.79105739668426   -1.21798661010539
H          -1.02427738849244   -2.49988323975547    0.55033000244057
H          -1.44672491168747   -1.79984805236619   -1.50312802468404
O           2.62773287507832    2.33865873832092   -0.17424472046096
H           3.22447799520878    1.59887873425522   -0.41601761006959
H           1.45929605090332    2.23727010882881   -1.26079571492779
H           2.02707186865723    1.96865720808136    0.48981568109910
O          -1.05579853523444   -0.04237805253695    2.42035522437956
H          -0.34136023746505    0.32837032482228    1.85514562222930
H          -2.12921077103847    0.42161747317892    1.56443033133586
H          -1.05318286202195   -1.01160542439998    2.23473099724291
N          -2.78374685299780    0.74115412930461    0.71896065805135
H          -3.07701867139077    1.70623642039410    0.82568190904474
H          -3.58768323545933    0.12869562443431    0.62692018924702
H          -2.13995562683305    0.64533975818018   -0.14874853712089
