    26
        -50.46305562  Gyration_radius:  2.55471676799 Dipole_moment: 5.327
 S           0.69785060687080    0.89891235193035    0.28542261516605
O          -0.28119035799535    0.16230681381054    1.07734931310137
O           1.76372583859334    0.00824133316104   -0.18401466346934
O           0.07647637475920    1.61707221516284   -0.81726059385618
O           1.38473496120994    1.92989854397665    1.21892654971705
O          -1.13124348271003   -2.27242312852352   -1.90790729553008
H          -1.97657322000329   -2.09708703925127   -2.32375850295150
O          -1.73102134621759    3.37607572736499   -0.00849078626188
H          -1.13202713953986    2.70616912344624   -0.40353202919074
H          -1.46612651681860    4.21922495914412   -0.37996325032071
O           0.46392887549217   -0.26683377407711   -2.62896618108177
H           1.37068003427280   -0.42432186058705   -2.35120377760028
H          -0.52834922994756   -1.55270359527168   -2.21409517802095
H           0.19595505807330    0.50748178501921   -2.09426050461035
O          -0.84782936754560    2.47272717289963    2.35913470376209
H           0.62350987894879    2.28638088563835    1.76260325406593
H          -1.32113600740016    2.94643473129939    1.64259195046410
H          -1.02114313897592    1.53371055414236    2.19518956792825
O          -0.94438836805773   -2.35452165424221    0.73753210429336
H          -1.14631559330698   -2.40189369603538   -0.22731588480792
H           0.49464776909523   -2.52118814018919    0.74867405651633
H          -0.91272676108888   -1.39352739899832    0.94489042985237
N           1.60240889325698   -2.40904687654893    0.67153215469908
H           1.98820926751645   -3.05198932403518   -0.01230090743603
H           2.04838964280436   -2.53340860369111    1.57397481122464
H           1.72955334888395   -1.38569107561819    0.33524803439009
