    26
        -50.44722216  Gyration_radius:  2.48009035238 Dipole_moment: 5.453
 S           1.60912128978551    1.10436371148177    0.48633899755742
O           1.92683363780682   -0.41821651041719    0.60201972468330
O           2.82345403981794    1.79823472721622    0.27165488194537
O           0.60459775994040    1.25804214223101   -0.55118340890406
O           0.98215963566520    1.46308851312130    1.83225402666657
O          -2.14534475235385   -0.88725979558931    0.33661445139390
H          -3.06222709549961   -1.08439271370239    0.14232564647009
O          -1.28036194202892    3.15774328991119   -0.43352384580810
H          -0.57775254033321    2.52445709219344   -0.67474594628657
H          -0.85507483616756    4.01052650515846   -0.33202861502263
O          -1.51991463394836    1.45195237777737    1.62070573539890
H          -0.05725609111200    1.43147221251135    1.79444379096775
H          -1.63731697087372    2.15338234609080    0.94454619685984
H          -1.80460951999682    0.61998378558030    1.19504482932953
O          -0.00644059449482   -1.72421007559016    1.70558847422977
H           0.09874135899817   -2.65934740058683    1.51997808206453
H           1.17522023149772   -0.87931911808226    1.07503284977010
H          -0.85903207219981   -1.45225573719484    1.30812531773302
O          -0.74260950276778   -0.70488136440345   -1.81741808434014
H          -0.03544697375233   -1.38141481323586   -1.88036230430364
H          -1.66681048135490   -0.82932857065342   -0.54775274226948
H          -0.27670358978794    0.10650134873311   -1.54898418533303
N           1.55474132280518   -2.21665833635258   -1.78013711776413
H           1.73861736164491   -3.19644682470913   -1.60248985523841
H           1.97770908368785   -1.67729769854389   -1.02973135188148
H           2.03570589501553   -1.96871909294546   -2.63631552791642
