    26
        -50.44722214  Gyration_radius:  2.48009161963 Dipole_moment: 5.453
 S           1.73551270946876    0.98281498189297    0.25922466634088
O           0.42123710917340    1.16265718847964    0.85040840735078
O           1.98149946136890   -0.55227850948269    0.13437590433253
O           1.69487556999376    1.47787951199403   -1.18526124286077
O           2.81407751816304    1.55026356405966    0.97815625251760
O          -1.90147967261063   -0.66868619997585   -1.20012200196495
H          -2.83282581813398   -0.79416369821188   -1.38475904481127
O          -1.15729874495786    3.22784566164750    0.20305251853461
H          -0.67518426655302    4.04346248414834    0.34717486205909
H          -0.64013075425509    2.52032752598423    0.63302021295695
O          -0.69306444513713    1.67896157379212   -1.93530746713594
H           0.72043666754019    1.53765220861453   -1.54540228138742
H          -1.16837687947952    0.85150183350870   -1.72601555825065
H          -1.01845877054757    2.34546645533296   -1.29276608967742
O           0.54466058919473   -1.60894819567923   -1.73108919194566
H           1.44252611992096   -0.91407020260404   -0.62711598968514
H           0.51459987444849   -2.55942193319060   -1.60554711190389
H          -0.37728538587015   -1.28626812572008   -1.66172896515265
O          -1.42301851513289   -0.74502671138054    1.33085834004003
H          -0.83577575054587   -1.48503999455509    1.59403942533817
H          -0.84223074691218    0.03608395850286    1.33294894909818
H          -1.79580883606531   -0.70748207495820   -0.19922765724446
N           0.61820045694382   -2.45220275969298    2.02610933835091
H           0.79717991569570   -3.43184270782316    1.84279922500657
H           0.74828369087474   -2.30129274236990    3.01915533435675
H           1.32784888341542   -1.90819308231258    1.54301916573935
