    26
        -50.44722216  Gyration_radius:  2.48009579061 Dipole_moment: 5.453
 S           1.59823492059777    1.20078255325139    0.22100765696701
O           2.15424067875037    0.74334924333734   -1.12616773034041
O           0.18293387707092    1.48802200328707    0.06749420388140
O           1.71945681968063   -0.05668693237571    1.13570640916415
O           2.37696278900253    2.23903041169929    0.78472644264162
O          -1.36532148709824   -1.52689063817939   -1.14352776336640
H          -2.16591064809127   -1.87797343660760   -1.53473889682406
O          -0.82183762130988    2.51100114357237   -2.19524624544851
H          -0.57783644619339    2.27877598755360   -1.27903398096695
H          -0.35117674088097    3.31880183338970   -2.40588726115385
O          -1.88601493704681   -0.03293466195774    0.89059130029858
H          -1.27434762962434    0.67939715659111    0.63386291064693
H          -1.64904262617262   -0.95593271764366   -0.36380639484465
H          -1.51787588550534   -0.37780338694260    1.73159014065046
O           0.99416977595847   -2.21045286655646   -0.08752928718105
H           1.47411040756978   -0.87320332807682    0.61189886769506
H           0.82477670012059   -2.89833882623862    0.55913876343456
H           0.15101600851399   -2.05456551477083   -0.56049101662610
O           0.25762835707894    0.09767448585155   -2.63984693951987
H          -0.34112391114570   -0.51165264828467   -2.16590284796927
H          -0.21797527555138    0.95439507523715   -2.69282502681108
H           1.39846434865246    0.43048201908458   -1.76938087708646
N          -0.43758281464011   -0.67156611543526    3.13976635560836
H          -0.67700254281196    0.04977669605058    3.80923175437967
H           0.45203200628488   -0.41218255227569    2.72236102316853
H          -0.30097813320779   -1.53130501356171    3.65700845960063
