    26
        -50.44722213  Gyration_radius:  2.48009300737 Dipole_moment: 5.452
 S           1.86414788533046    0.16610072707649   -0.73648791413094
O           1.55292537133808   -1.31108069551951   -0.34445160559541
O           3.26632946716800    0.35190892422160   -0.69739594108689
O           1.31376820774117    0.30483854862464   -2.15462333230181
O           1.09131845877475    1.01956097814362    0.14866983599318
O          -2.34174856016571   -0.02277753741527   -0.13683983537517
H          -3.24276651972341    0.23015753371654    0.06665553379103
O           0.09183453127844    3.36998037768369   -0.65914764584107
H           0.80520736051686    3.90672119618629   -1.00764079278321
H           0.51027963911659    2.61998681935125   -0.19512183631687
O          -0.82254877496252   -2.01811680836314   -1.06437500803514
H          -1.46477265744380   -1.32205794591788   -0.81539402678070
H           0.64381513204472   -1.55937537925040   -0.68077229060726
H          -1.07440144600778   -2.81013362032680   -0.58543315031237
O          -0.96732236080695    1.35109223697022   -2.06960736798718
H          -1.51599272835652    0.87741402672367   -1.41462542847714
H          -0.74430807936373    2.21413059810669   -1.65923856119473
H           0.35138827761676    0.70059298704864   -2.15803471443092
O          -0.80022252918244    0.25062888278647    1.90997618495401
H          -1.80449931418469    0.11401999311612    0.70406274326676
H          -0.40970104775359   -0.59421551620043    2.21895929538706
H          -0.08001691535391    0.68380560566048    1.41894366251516
N           0.71516031813368   -1.97602522462527    2.46674538768543
H           1.24887789139284   -1.91103172997215    1.60428028854703
H           0.48728300391098   -2.95061895638436    2.62025985044349
H           1.32596538894076   -1.68550602144202    3.22063667867403
