    26
        -50.46654167  Gyration_radius:  2.46922863507 Dipole_moment: 5.990
 S          -0.11672421522518    0.76900627844537    0.83289039714514
O          -0.51120122026546    1.46944491308987   -0.37181494164507
O          -0.80869530206797   -0.51480332223583    0.96759050986856
O           1.33777495608669    0.56154769312248    0.88642573931570
O          -0.44212940925660    1.63144693240089    2.07130387333537
O           2.75625236628822    0.58486562135058   -1.37434399303085
H           3.02686109278187    1.43997647090732   -1.71137539281389
H           2.25165304063652    0.76412734004883   -0.55225870631208
O          -3.03482253768914    0.38349559733886   -0.15539384455604
H          -2.59977108406771    0.94637590230025   -0.80502410112462
H          -2.30254279556292   -0.12708156933386    0.24468166707455
O          -0.08160417085658   -2.35626106260052   -0.78716142410978
H           1.28072186631914   -2.18204794399749   -0.28053663098736
H          -0.54047931798891   -1.85372247502415   -0.07951075690480
O           0.24495398991356   -0.21778032929198   -2.28367233785957
H           1.19381367667455   -0.02103213156926   -2.28158574083460
H          -0.07362452909195   -1.71832667644747   -1.54432732337277
H          -0.14061858779319    0.45386430636946   -1.68503782315856
O          -3.01783638935880    1.90175943169496    1.99017699351331
H          -1.42226121705407    1.81544045628346    2.05251112122478
H          -3.19863193987976    1.39923227450049    1.15397807384102
H          -3.41382964685611    1.39307382617082    2.70088577174686
N           2.21444124207871   -1.76948195327400    0.15605961726065
H           1.88245229469783   -0.87413010222073    0.63302750201769
H           2.85112794985443   -1.47700111085725   -0.58531752242108
H           2.66471990768951   -2.40198836717246    0.80782928278698
