    26
        -50.46797329  Gyration_radius:  2.47256984299 Dipole_moment: 6.428
 S          -0.66170230544316    0.50346195984810   -0.76916191513668
O          -1.71210857169015    0.95044707090554   -1.80786027786317
O          -0.64038381003974   -0.95910907861673   -0.73429361103803
O           0.63443191644585    0.99809978145220   -1.25211953502215
O          -1.00007509367665    1.07320738949972    0.52166174813016
O           1.26018403052059   -1.98698156766427    0.78748263405331
H           2.19229661926667   -1.26735804476350   -0.06612029076361
H           0.45613308164566   -1.84093180402417    0.24272920926383
O          -3.08416546478764   -1.78346329794574   -0.13048777824624
H          -3.36346939359436   -2.36765542582294   -0.83719721862544
H          -2.14722953221496   -1.55779247080054   -0.31484909494617
O           2.31451516999241    1.96544748379899    0.58789300211352
H           1.61773779071431    1.77652934240693   -0.07584139029747
H           2.18588568841557    2.87636779636611    0.85601515512345
O          -3.60275219002381    0.84652833675563   -0.09372709409602
H          -2.56368267572328    0.97203870187864   -1.27472856454570
H          -3.67484802002894   -0.12762434380228   -0.01303005024286
H          -2.91531276374207    1.10184886986083    0.54037244337280
O           0.88752131839894    0.19251761637776    2.19995842876111
H           1.14924058156495   -1.33793384416124    1.52896085060081
H           1.56737686358536    0.81904626716817    1.90817463923448
H           0.07655980677885    0.49265519540974    1.74483992728069
N           2.68448988471623   -0.52991652025407   -0.74227309836021
H           1.86590494416900    0.02706898459756   -1.13183910012875
H           3.23099961192822   -0.96371424205161   -1.47776392390358
H           3.24245252282145    0.12721586357753   -0.19679510471843
