    26
        -50.45271273  Gyration_radius:  2.56237562292 Dipole_moment: 2.803
 S           0.49636602763269    1.35568264201874    0.61049974480799
O          -0.75627784481008    1.20886333937413   -0.10780132635291
O           1.31976183404008    0.05755465363225    0.37484578301634
O           1.28407613134953    2.48366635233205    0.22742901941381
O           0.24784216021183    1.38367737910395    2.09753266079676
O           1.03806320893642   -0.08006564554108   -3.38600737772206
H           0.52469399700150    0.42019930114202   -4.02251988379474
O          -3.05033250456835    0.49260418661051    1.04279029851170
H          -3.53784426904769    1.26995885856645    1.32004376068066
H          -2.28784496776036    0.81604614361973    0.52205120001243
O          -1.21114453084799   -0.51302776250117    2.68804281063314
H          -2.03082613421571   -0.27096427946406    2.20066181205938
H          -0.83697070621480   -1.31857711926283    2.22125314374016
H          -0.37579960459978    0.54469054334905    2.41104027752632
O           2.46270504048737    1.75362062080073   -2.04425613255195
H           2.01520105284799    2.13002041643841   -1.26033294035383
H           3.33873513006994    1.50040280142341   -1.74729805609662
H           1.61276190026730    0.57428433589317   -2.93080154158677
O          -0.20782538330860   -1.11189609468305   -1.29827947572497
H           0.80177821046873   -0.51371101907351   -0.27943662582877
H          -0.81016368113371   -0.37269506546708   -1.11776323756050
H           0.23569690894613   -0.88692750370405   -2.15279196550309
N          -0.19202008419261   -2.54997454131232    1.31808770110465
H          -0.39136210686444   -2.37366867000429    0.33846003646954
H          -0.50243000179772   -3.48704517080191    1.54099967359919
H           0.81316020733486   -2.51271869243695    1.43355065041787
