    26
        -50.46797333  Gyration_radius:  2.47241760646 Dipole_moment: 6.422
 S           0.34887358286393   -0.97934199861012   -0.45008183366165
O           0.73349785362078   -0.09284801838056   -1.55649651494678
O           0.59343672480857   -2.42125564541906   -0.94312763207620
O           1.15877785268153   -0.73852526965732    0.72950805899589
O          -1.07962174879662   -0.82130613249127   -0.17583975499371
O          -1.80583893079405    1.64286717904259    0.44450638912128
H          -1.76271518533250    0.66984865051067    0.31805749183632
H          -1.26896797725830    2.01967350290056   -0.85369044810699
O          -1.75573161340104   -2.64197489992062    1.62523990589064
H          -1.57590849799239   -1.91503580129322    0.99120627381335
H          -2.46511965470943   -3.16141700712633    1.24354723132189
O           2.02831534534937    2.15208655658056   -0.90149044072486
H           2.97429171214123    2.08303395262878   -0.76534666478933
H           1.71900920568282    1.24825020977922   -1.12331430576064
O           0.83500015900779   -3.30630383674553    1.44059280275427
H          -0.10483321681664   -3.25177794887166    1.71333285305810
H           0.72327101869437   -2.93441503191731   -0.08890301588482
H           1.20340585277931   -2.42955850300172    1.62872949360748
O           0.60675150942716    1.77261979691254    1.46788634101753
H           0.81814342255712    0.82131438238493    1.39579028027338
H           1.16145809583267    2.18924574120600    0.79069152414451
H          -1.02584190370480    1.82777709642777    1.02822044019401
N          -0.67808448197517    2.08585178779275   -1.79691042015608
H          -1.24821742449342    2.27253813056991   -2.61416320171962
H          -0.20238642938681    1.13577518895567   -1.85335458640368
H           0.06903472920995    2.77287792773806   -1.69459027679862
