    26
        -50.45271262  Gyration_radius:  2.56264339703 Dipole_moment: 2.800
 S          -1.05738427924634   -0.80259893455148   -0.83299318180617
O           0.18846376506195   -1.35799562245362   -0.08614212036865
O          -2.16400504969336   -1.67702197356472   -0.60867039143328
O          -1.25443925547705    0.56436735439277   -0.38664170687303
O          -0.66986581209992   -0.82771368572120   -2.29000689444797
O          -0.82037743972226   -0.39980221257737    3.42294894025036
H          -1.53349186395284    0.13447195441596    3.77647315430118
O          -0.46233700382898    2.70302545007455   -1.76459494883677
H          -1.16774336332404    3.00609555061582   -2.33852003736180
H          -0.84766533980257    2.00335435293670   -1.19964239004030
O          -2.03044917292869   -2.30457306921657    1.97405595196389
H          -2.19829161534001   -2.06758642679179    1.04018681193808
H          -1.62043237391967   -3.17129119373495    1.95303128009286
H          -1.25230268767818   -1.13987621412766    2.94196044205501
O           0.65307893562022    0.60407533407112    1.47440814792947
H           0.48630683171352   -0.65016366725153    0.57179883950671
H          -0.05583043717207    1.04173055533052    0.97671296583063
H           0.23099559239136    0.28815895389906    2.31079966407919
O           1.16186953430331    0.78267218737522   -2.64476113660193
H           1.82647452776214    0.62754407472801   -1.90918137927736
H           0.15816892409540   -0.14576495315296   -2.49151510135680
H           0.70617442408092    1.62727141224214   -2.42790779360043
N           2.79383993554976    0.35387420372366   -0.59125095858022
H           2.89352438948250   -0.64899568934297   -0.49430083105667
H           2.31697728290359    0.69273971907982    0.23839444889484
H           3.71874152111177    0.76400254962033   -0.61464179529108
