    26
        -50.45271284  Gyration_radius:  2.56205914594 Dipole_moment: 2.807
 S           0.71051029745298    0.05261516184970    1.39618953723989
O           1.14505488749044    0.82305000069471    0.24542684925512
O          -0.06718909333111    0.92555697666366    2.34845427899019
O          -0.32350022500942   -0.99263161420009    0.88919431464223
O           1.75304345533418   -0.62535354463524    2.09830493780779
O           1.70195135600666   -2.41007801868368   -1.96126762733652
H           2.53295807350629   -2.15216011780177   -2.36359199926312
O           0.19657645510723    3.23580508897124   -0.36975152817787
H           0.65945414300751    2.38764491434539   -0.21627729686123
H           0.73877482284034    3.91638134457374    0.03232112353461
O          -1.77276553931700    2.16026642991742    1.06735167573334
H          -2.21809734040888    1.49239583312067    0.46527707791153
H          -0.85360548216754    1.47550573000203    1.82844224642939
H          -1.20110493469593    2.71255040024000    0.48745911888687
O          -0.15785818975124   -0.56624400056828   -1.61921255744985
H           0.42081830458078    0.16769909417292   -1.35802101123135
H           0.45008053702328   -1.29443751619765   -1.89778044287202
H          -0.36171799509436   -0.91500303653862   -0.11829753230972
O           2.26753076130576   -2.78686395955297    0.63279504752491
H           2.19850657559474   -1.98531406994192    1.18886694818542
H           1.77446287417881   -3.46723546722734    1.09504408507513
H           1.90959490889157   -2.61370064235117   -1.02250807839043
N          -2.80192589155102    0.32431252202170   -0.55576323213659
H          -2.08589627496748    0.10301946961167   -1.24047091099884
H          -3.65772055674017    0.54068486996417   -1.05076590380029
H          -2.95793592954332   -0.50846584907868   -0.00141910976009
