    26
        -50.45271264  Gyration_radius:  2.5627717322 Dipole_moment: 2.798
 S          -0.80978142568980   -1.20925227884969   -0.58087958703924
O          -1.22419337518875   -0.44874205391464    0.58381780217910
O           0.34475060605748   -0.42047427243711   -1.26149962365259
O          -0.18215964768728   -2.51384371219183   -0.15914215780123
O          -1.83841143783731   -1.45219751490018   -1.54128430038211
O          -1.33623972044451    2.95598512562893   -1.42487926833688
H          -2.15130439963157    3.30167903703537   -1.05729954510514
O          -0.44530970113255   -1.00397502463724    3.07076780168568
H          -1.07237654230821   -1.59637610609132    3.48870606510371
H          -0.84284544161623   -0.73897312522382    2.21699324652870
O          -2.07642743875305    0.83225116556005   -2.88567965005604
H          -1.60019800427592    2.21519825544359   -2.01413936483432
H          -1.57865343338052    0.65112708267556   -3.68520388055783
H          -2.10884256014509   -0.01373681708982   -2.39604405166088
O           1.50028691196661   -2.05155536417695    1.58160897682425
H           2.04416381469936   -1.27405547328860    1.25520550292375
H           0.92681761421758   -1.70148214060776    2.30036531689914
H           0.59026597356072   -2.35634955211790    0.59577325728869
O           0.32707582816466    1.68095203798623    0.18233970101485
H           0.44993577565526    0.45210604545243   -0.76136592360298
H          -0.19326856503229    2.30024364123050   -0.38621302954040
H          -0.33088356727745    1.19728063863290    0.70671214651238
N           2.79903997568273    0.07719409029060    0.66196104082322
H           2.98719447946151   -0.08969549686007   -0.31876925648010
H           3.66568730647456    0.34628068043637    1.10994917825960
H           2.15567696448345    0.86041113198863    0.71819957291753
