    26
        -50.45300981  Gyration_radius:  2.43487245241 Dipole_moment: 5.196
 S           1.37788305477502    0.53070644660399    1.48638766272679
O           1.40801481811576    1.51793130202157    0.41759868617263
O           1.94009062102261   -0.78546554223334    0.92543930129182
O           2.05409722994194    0.88837834194306    2.67597621162538
O          -0.10574184294101    0.22132176500153    1.78959587795245
O          -0.16569825385631   -0.50980189915984   -2.26146307074578
H          -0.37766389515607   -0.44136566901762   -3.19306318520263
O          -0.53953061907809    3.17691106058411   -0.36410691177688
H           0.29204904637775    2.71493946447018   -0.14120321040632
H          -0.65109623244724    3.86367058099673    0.29482077724020
O          -1.53742322466986    0.70498961751974   -0.25173375802803
H          -0.68762321403896    0.40242093300356    0.96471791119783
H          -1.37223830013507    1.66636846002293   -0.36341243034379
H          -1.11446025832778    0.27922288595264   -1.02432952458559
O           2.27920922037560    0.27854698143812   -1.74429116311565
H           2.79494567701797   -0.43305981086897   -1.35586808119531
H           0.76951863877073   -0.18423672392050   -2.15897259749043
H           2.05252398240809    0.86975584539331   -0.99582772562866
O           0.18436825854986   -2.21725397146726   -0.14285469689504
H          -0.65575759947281   -2.17584947355954    0.39274383422758
H          -0.01535552295512   -1.78862923146547   -0.99158085161542
H           1.21058669117598   -1.40047565410200    0.50550772200343
N          -2.08322034374954   -1.89575207822800    1.23771359708112
H          -1.74824606662430   -1.52391851830343    2.11833568149644
H          -2.76189263221336   -2.62088966760789    1.43029204657592
H          -2.54733925286510   -1.13846545501767    0.74957789743671
