    26
        -50.45271286  Gyration_radius:  2.5616953516 Dipole_moment: 2.807
 S           1.54547224901802    0.08171624286351   -0.24978722519384
O           2.25028093759805    0.58532498121732    0.98438889139741
O           0.60191307599439    1.07348551406157   -0.73229164009868
O           2.50407760905377   -0.35906275673177   -1.21222400637501
O           0.71994496144724   -1.14127660405461    0.24173856037684
O          -1.44173935681620   -1.58968015183408   -2.81809783192037
H          -1.56739393589020   -1.06306616902644   -3.60920402362775
O          -0.19003546173367    3.18298053628516    0.68960034014559
H           0.06722449164806    2.48488771895717    0.05422526736063
H           0.37732854760099    3.93442865789032    0.51005133057853
O          -1.61010789586638   -0.39048421621796   -0.47110913346972
H          -1.16502610896762    0.43891589837792   -0.70724365878808
H          -1.71827979535089   -0.88246027368505   -1.32187004997026
H          -0.25016458201992   -0.95796007123888    0.02289302663731
O           1.18858492751579   -2.10445563228067   -2.73124184661750
H           1.45967615986317   -2.94446066638529   -2.35604499908046
H          -0.49132687957850   -1.83964829960151   -2.80978556778817
H           1.72484589407501   -1.42515383712593   -2.27581731879669
O           0.55936766056131    1.44006965871474    2.56059549708415
H          -0.16896514885765    0.75102698180513    2.60126827583546
H           1.53732159203660    0.95260266818879    1.72497090597805
H           0.19399536911263    2.19411166358654    2.04482142961401
N          -1.35396648923472   -0.40379439606320    2.50339111720368
H          -1.80154143180623   -0.33440724657747    1.59491251407584
H          -2.07378299033326   -0.37706748202836    3.21426875755550
H          -0.89770339905375   -1.30657274899347    2.54759138728186
