    26
        -50.45271253  Gyration_radius:  2.56293228935 Dipole_moment: 2.800
 S          -0.56499857139463    1.04382088555944   -1.02271385569285
O           0.44897300918328    1.29313564411673    0.12972812064882
O          -0.68494616197529   -0.39319931134364   -1.18907168915896
O          -1.86272755869978    1.62355567660591   -0.51944654221916
O          -0.13365928567362    1.75263471758406   -2.18509898264035
O           3.23273767254153   -0.93435380957412   -1.11073941163581
H           3.29524951657612   -1.57328738388983   -1.82261048511190
O          -2.68803174576161   -1.83883609924764   -0.19011806914940
H          -3.39615041269373   -1.90936069298772   -0.83232084543050
H          -1.93868052556740   -1.41123351533787   -0.65143628787554
O           1.19454885110812   -1.10691381768330    0.56003531096591
H           0.81778223298727    0.39338565115645    0.40710406537048
H           0.50542846533216   -1.33282555386613   -0.08490280357754
H           2.04543843623459   -1.13673899250540    0.05745962950215
O          -2.62534918703501    0.29168251878893    1.40881927533709
H          -2.22817103267764    1.07942619769406    0.35368562918107
H          -2.78565672137537   -0.57785882573925    0.97723624506546
H          -1.82683810011249    0.16490106607110    2.00315091986282
O           2.49575093864927    1.35670820880006   -2.29372172937489
H           2.84028368032714    2.17320774135817   -1.92712887091619
H           3.02508333506527   -0.07460851362872   -1.53900166579653
H           1.52992151929268    1.48814920399196   -2.37295140772617
N          -0.41880979572703   -0.06799944837442    2.84597617093994
H          -0.50835183493793   -0.42762710131564    3.78768258580063
H           0.05606515910293    0.82505920309933    2.89104099167796
H           0.17510812702042   -0.70082364958231    2.31934372236426
