    26
        -50.45271280  Gyration_radius:  2.56238871593 Dipole_moment: 2.800
 S           1.20653666046888   -0.65309930269351   -0.75692225727840
O           1.22192092718456    0.06560363245831    0.62213636597414
O          -0.18266208114164   -0.88644510070312   -1.10683858669101
O           1.82776117859877    0.33777529126807   -1.70873534225044
O           2.01598227903348   -1.82721027766449   -0.68004157976283
O          -1.06024397819029   -2.29508935145916    2.48208112588813
H          -1.60426468509129   -3.03429682479033    2.20540486824860
O          -1.56837782251237    0.64992268638057   -2.78602934457668
H          -1.15068426005435   -0.01581577206635   -2.20340816805148
H          -1.50012089985948    0.30875469135710   -3.67921077304192
O           1.42140322338739   -2.91373612994238    1.67573515923181
H           1.64186016323818   -2.62755011269851    0.76700172155591
H           2.14926056412332   -2.61778510639350    2.22552910801384
H          -0.13715186697669   -2.53877711264302    2.24910854917581
O          -1.26779752608469   -0.01474301978671    1.16596187484308
H          -1.35229402749655   -0.37883529950368    0.27036000391638
H          -1.30677740843024   -0.79492512989937    1.77198705426967
H           0.26630671374372    0.11010227031498    0.94987486397386
O           0.33494546358387    2.28993080078809   -1.89786090340313
H           1.21221441329223    1.23359457137373   -1.80589705355496
H          -0.45751033762456    1.87446564091616   -2.30700092798030
H           0.06837262089868    2.53794017147314   -0.96290073477788
N          -0.38527704515513    2.78302315711361    0.61276179933189
H           0.45191992748586    2.72318004278837    1.17903176203828
H          -0.99801631175437    2.02506365110295    0.89659069580781
H          -0.84730586576760    3.65895195330807    0.82128071942995
