    26
        -50.45271280  Gyration_radius:  2.56204680875 Dipole_moment: 2.801
 S          -1.08868213674506   -1.11934917295392    0.13563541873509
O           0.34817115486822   -1.25055863769374   -0.44471918598859
O          -1.99589479823175   -1.84350436973711   -0.69631645339315
O          -1.01003954396232   -1.76634132001295    1.49532962857389
O          -1.37342740486252    0.29790790171642    0.26676607808612
O          -0.03676946121039    1.11285771666981   -3.36395941870184
H          -0.73003937079625    1.72177200278646   -3.62385799879538
O          -1.18083396229986    1.64175275463681    2.55926517638170
H          -1.34254493078770    1.24796415282157    1.67833666661726
H          -2.02358406314342    1.63774993465383    3.01599587836187
O           0.85284213323490    1.21061914117563   -0.87925962197056
H           0.65893448817511    1.27935462689847   -1.84634175609405
H           0.00395157137957    1.36276349024167   -0.43421787239987
H           0.67564389823563   -0.31679455380732   -0.65313712275455
O           0.47376592590533   -0.41435320760673    2.92512573115543
H           1.29028074193093   -0.21018892375982    2.37869678750045
H          -0.03789599656549    0.42454551625775    2.97616215305297
H          -0.34130049617876   -1.21440899711442    2.15869372825946
O          -1.23779586180554   -1.27800389883926   -3.18398994757450
H          -1.62978329462125   -1.47761194136949   -2.31053193273002
H          -0.45051972024027    0.22147179041669   -3.35724106087835
H          -0.71938622995445   -2.04985172609410   -3.41896729627729
N           2.53606411013583    0.14997815459892    1.34654294262495
H           3.37434519505586    0.53451853429076    1.76317486600457
H           2.20006244332881    0.80379173162169    0.64649195608789
H           2.78443557964811   -0.70608069973674    0.86632265610162
