    26
        -50.46654164  Gyration_radius:  2.46921003955 Dipole_moment: 5.995
 S          -0.39243982188806    0.00426508601851    1.07033760708286
O           0.46171600656998   -1.10654781976317    0.64398990971643
O           0.38133033667911    1.25433957442624    1.08227337553611
O          -1.57783909737964    0.11881350200799    0.24627206457772
O          -0.79730061385200   -0.22796273273216    2.54190504537828
O          -1.58953660646761   -2.61708227068084   -0.08662201430140
H          -0.72282999545282   -2.20065680466857    0.09364376356743
H          -2.12697240435606   -1.89708456129686   -0.43429553855363
O           1.66433439045822   -0.75262597794678   -1.68593248160730
H           1.31583985995448   -1.13266116285618   -0.85059395827448
H           2.24517060139509    0.45955590654443   -1.10621848353527
O           0.10896974907021    2.99573540785720   -0.92204346351758
H          -0.62420425356044    3.61041004084910   -0.87061074572742
H           0.05444529670109    2.43935242160673   -0.11579755690521
O          -2.07926459963790   -2.47910495181550    2.49217629306510
H          -1.34917006745836   -1.05843418574132    2.56729998983868
H          -2.03317794041170   -2.66084774293629    1.51780451840422
H          -1.54887314376049   -3.15624209302333    2.91756105412452
O          -0.54940907169823    0.58590504821556   -2.16164321284525
H           0.85511684576607   -0.37546831089154   -2.11406587476886
H          -1.05144400616884    0.35395954168813   -1.35401638005572
H          -0.33538896324788    1.52409094048988   -2.04714619059707
N           2.42910158114599    1.37636826955459   -0.50757880569545
H           2.16830177184630    2.20494078361853   -1.04237557554899
H           3.37791155409570    1.44110580742237   -0.15659016856794
H           1.71561259163042    1.29587628404252    0.28226683921164
