    26
        -50.45271263  Gyration_radius:  2.56251044657 Dipole_moment: 2.802
 S          -1.23454210387161   -0.87569691368467   -0.40777777142289
O           0.08734566029734   -1.34473415543058    0.26394835882332
O          -1.59998514930927   -1.81181239714947   -1.42254996300342
O          -2.25395283686874   -0.89765365003004    0.70291926906811
O          -1.02382885480535    0.48300196462344   -0.87296134364267
O           2.46498869651860   -0.40128285131837   -2.51335757817733
H           2.35902892664834    0.09344695664446   -3.32758169589718
O          -1.85429539026693    2.64569210314448    0.44286543597133
H          -2.72973163066536    2.89775389432989    0.14470227465201
H          -1.55389201337054    1.93206942137707   -0.15527574121373
O          -1.64111180915801    0.81434384050320    2.36631593528842
H          -2.00945606401675   -0.16987787702645    1.47937149100071
H          -0.65780391412261    0.70932630432979    2.53691682855592
H          -1.73956512960370    1.63305088605542    1.82949723811448
O           1.56603091778249    0.66282389170842   -0.26953834756253
H           0.74726354231268    1.04999658464030   -0.61813155229106
H           0.77062517080114   -0.61150103181111    0.12965738675405
H           2.05918183713671    0.33364706056049   -1.06072908683849
O           0.67738940506503   -2.39398258077024   -2.67037835597844
H          -0.21052366374093   -2.18029251802938   -2.32042524305798
H           1.85964726773305   -1.17196979352432   -2.58650443122148
H           0.91758428316801   -3.23417044030173   -2.27512338688484
N           0.98342826792542    0.51174932483564    2.65449969043513
H           1.44207727293705    0.97459957371773    3.42882387000655
H           1.41233733328175    0.83362810506213    1.79257564481109
H           1.16175996816001   -0.48215571238065    2.72824107385197
