    26
        -50.45271277  Gyration_radius:  2.56235182432 Dipole_moment: 2.803
 S          -0.07044615277742   -1.54428587738259   -0.25681580106433
O          -0.36528228920492   -0.78254098562635    1.06667824169253
O           0.57617108494202   -0.60872252656194   -1.15865492367842
O           0.68571978141033   -2.71897476988633    0.03958274064056
O          -1.42956641315130   -1.92779539331557   -0.78538587385909
O           3.07549801419596    0.66225073660834    1.63008313557932
H           3.86889601897416    0.69028453254303    1.09276015717269
O          -0.68897507396031    0.68368433100238   -3.11535105792895
H          -0.10795772755708    0.22815191113247   -2.47342098290434
H          -0.63835851547549    0.18118852418199   -3.93005718922104
O           2.47340050077134   -1.94176794305592    1.85166634159908
H           1.90534362744537   -2.29416219230067    1.13787772963492
H           2.88092778147181   -0.29039055522991    1.77260796418600
H           2.07042067808945   -2.23207420996654    2.67202436297280
O           0.79239668016644    1.42867663080840    0.54594279066117
H           1.65502969894402    1.30880719000460    1.01392096830264
H           0.92050702284809    1.04235348884863   -0.33504275889804
H           0.04234319890249    0.13899130047077    0.98166883044589
O          -2.64494445036604    0.12856594795489   -1.39287361325773
H          -2.07836192820256    0.46673853843312   -2.12267527140636
H          -2.01631600893410   -1.04504242320375   -1.04549250202895
H          -2.52631353308136    0.76778824729767   -0.62861339638670
N          -2.17176215725954    1.77176286170459    0.64199919484048
H          -2.29436893136634    1.23561286980725    1.49207701162528
H          -2.72163819109343    2.61790654080784    0.71854141392729
H          -1.19236269561166    2.03299322480281    0.58695247732390
