    26
        -50.46224026  Gyration_radius:  2.5484633591 Dipole_moment: 4.824
 S           0.60836458119073    0.14841243563219   -1.01632719113549
O           0.39281942385236    0.07242038342109   -2.55413223475126
O           1.53664404306109    1.21935888661016   -0.71800171394622
O          -0.69370818400398    0.35322426048464   -0.39136543289152
O           1.14035622797390   -1.17973028862453   -0.66399306329071
O          -0.24092066990492   -0.63555101320743    3.22308255826216
H          -0.34240675977569    0.11046463218914    3.81578331938254
O          -0.36408056515158    3.04597309905100   -0.59886830948313
H          -0.99043600827340    2.35625219377781   -0.34406957412084
H           0.49723642546980    2.58970796036071   -0.52491399391314
O           1.87555505922339   -0.09989884303728    1.66329199002000
H           1.78413831668869   -0.67760147776203    0.88714012832588
H           1.98083050435910    0.77191264201701    1.26498594854590
H           0.57171816302651   -0.45697170646694    2.69756128531118
O          -0.19461943411592    2.52796463821230   -3.18347937471700
H          -0.37499624150605    2.87618726335648   -2.27338388845068
H           0.61647160691818    2.95137032106585   -3.47313940937957
H           0.12443550528595    0.98009311016606   -2.86677139861278
O          -2.00404969962506   -1.14473305243782    1.30248141561375
H          -1.68199956144627   -0.47039913276745    0.65949746186239
H          -1.27554003511958   -2.24558772796161    0.71500426827713
H          -1.49020618246279   -0.95822849540593    2.12330652687777
N          -0.55279238128803   -2.91805667565805    0.19028291821541
H           0.17173873755021   -2.23151513822090   -0.22849866687656
H          -1.00173964028140   -3.44387533893353   -0.55184211306719
H          -0.09281321178206   -3.54119292583789    0.84636857395125
