    26
        -50.46224016  Gyration_radius:  2.54878373355 Dipole_moment: 4.823
 S          -0.12336274093917    0.47748629882401   -1.08628603134623
O           0.27807464543661    0.19645484743174   -2.56163813642568
O           0.93154757682049    1.38131650923868   -0.59517723100533
O          -1.43751283756776    1.08544371540743   -1.05789625992360
O          -0.08217356310517   -0.78810876360701   -0.36219071927939
O           0.09691321048845    0.14877791339614    3.29043730748663
H          -0.68832074597941   -0.12158482488099    3.76846435385393
O          -2.68506320613238   -1.23915344672021   -1.01635778064558
H          -2.49291454701075   -0.28190957213768   -0.96701860619808
H          -1.91184432510382   -1.63181043616137   -0.59116857643707
O           1.38746609133563   -1.51647758824091    1.67217877803920
H           0.77624332857376   -1.43707542793156    0.90274508293591
H           2.34116438592130   -0.54695798549677    1.18413572499765
H           0.92937446624643   -1.02564371704038    2.39448011570156
O          -1.77976120091287   -1.09518513247000   -3.49335741196498
H          -2.34507343806117   -0.45588150986070   -3.93245683611126
H          -0.45481151473282   -0.33500353832483   -2.97880060915712
H          -2.22377917833796   -1.30765085676844   -2.63315571823490
O          -0.69768884255771    1.92827674148011    1.44631860806498
H           0.01064559322558    1.95342375075135    0.78130614577545
H          -1.48216912261891    1.76040745338581    0.91138414705625
H          -0.19530213956990    0.84447636737420    2.65868486990895
N           2.87907685875696    0.30095419223876    0.69270844823942
H           3.62779995713706   -0.02814024435741    0.09273941654319
H           3.23169683288080    0.95741443672710    1.38199449296824
H           2.10977446582392    0.77615082764906    0.09792643522815
