    26
        -50.46224022  Gyration_radius:  2.54845393703 Dipole_moment: 4.827
 S          -0.78433963176435    0.82377774219917   -0.36033631492768
O          -2.02396464783178    0.08958859903176   -0.50792847419765
O           0.37447513431905    0.04655219836942   -0.78543589603735
O          -0.84405567838344    2.10812569128440   -1.23439611638705
O          -0.58414762797984    1.33177314258744    1.00821279097922
O           1.08951195241228   -2.32954381625098    2.05909346116885
H           0.95021550474776   -3.24346801198582    1.80709939503084
O          -1.16873079723578   -1.24048499090167   -2.62035760292758
H          -0.26307262135720   -1.13967129083037   -2.30010031946490
H          -1.69998252797494   -0.94919195854299   -1.85326579049140
O          -1.55886860916712    1.19560431905885   -3.56400187600159
H          -2.51162007924321    1.29109653169378   -3.62898062987242
H          -1.07839142037702    1.83106164539044   -2.16280389214328
H          -1.39085433034851    0.23202254705026   -3.40468397031663
O           2.50601529731923   -0.66579927484803    0.54822823853042
H           1.80205975335211   -0.47407827642559   -0.11477799110036
H           2.25986964300078    0.51346818649420    1.34639515590094
H           2.12397820280425   -1.38665294273870    1.10227144571723
O          -1.28698779557006   -1.10116963024320    1.85077216842031
H          -1.84533048888707   -1.24426835534168    1.07771971977089
H           0.20277101112068   -1.90332897444998    2.03750273900341
H          -1.08866799057934   -0.15136404421867    1.79565654270309
N           1.83650985526860    1.40217744775020    1.87605259139564
H           0.81659029641112    1.44760787460899    1.51623125767864
H           2.32920300427738    2.25407920025585    1.63044276900235
H           1.83781459162180    1.26208646095933    2.88139058857857
