    26
        -50.46224038  Gyration_radius:  2.54831860329 Dipole_moment: 4.824
 S          -0.60137450767399    0.26945200892336    0.99525567572445
O           0.50289328287722    0.70102694873109    0.14536989811926
O          -0.35627103352369    0.83787327278326    2.42130383990626
O          -1.88393823976496    0.73605888364353    0.51070249926922
O          -0.56164477634934   -1.19165582065912    1.18100962720711
O           0.42865376341312   -1.61491025290554   -2.83747266673649
H           0.21404549714232   -1.14994698713356   -3.64735873924921
O          -0.87394408260696    2.95936999651757   -0.49004356720909
H          -0.02702871787947    2.50748657016655   -0.59761164915173
H          -1.48234021245331    2.22438977082130   -0.27790213969810
O          -1.70225072003574   -1.37915105584452   -1.22451740522540
H          -1.37541898506689   -1.56163463472931   -0.32764780163014
H          -2.14095435047335   -0.52695801432350   -1.11837128776697
H          -0.37993621538789   -1.57419793683022   -2.27800128971171
O          -0.79417256003675    3.38461688814699    2.11593006255092
H          -1.70392405251975    3.55099000618689    2.37231776194562
H          -0.46991413235986    1.82707058453517    2.37516614843118
H          -0.77784797422014    3.42172871091050    1.12583123966638
O           2.27573547671306   -0.71071257767873   -1.15615066458116
H           2.05839814313425   -1.71119098073150   -0.13679670236212
H           1.71784750580508   -1.03548602212060   -1.90177766499625
H           1.72068051741035   -0.01992198757622   -0.72413448441669
N           1.67345394286711   -2.36476712511671    0.68461619098979
H           0.74076193343098   -1.89275313184208    0.96553278920293
H           2.30626876378376   -2.38183164837401    1.47710276710459
H           1.49222174375765   -3.30494547542062    0.34764754270042
