    26
        -50.46654158  Gyration_radius:  2.4694133561 Dipole_moment: 5.992
 S           0.87828137578866    0.29582289215084   -0.66212711568551
O           0.34848878660367    1.62844223425277   -0.33813320797363
O           1.94820125275654    0.54541117183208   -1.74669459650480
O           1.48587589054592   -0.33173946258540    0.49301538438121
O          -0.18103604239935   -0.53514337649005   -1.23896422318455
O           1.05379462224922   -2.80379275837055   -0.64458821384729
H           0.44394080749665   -2.08696268505146   -0.91138762116994
H           1.41009923469551   -2.50561903479842    0.19939686531121
O          -2.35568668387073   -0.75126866010888    0.25119705000449
H          -2.43683794136354    0.70884554626375    0.19806497762286
H          -1.67131773805013   -0.86100960582512   -0.44418197238912
O          -0.25808534363193    2.22870800964009    2.19066871041283
H           0.14077944458769    2.05490493790358    1.31130604510514
H           0.45829370261907    2.52639239866794    2.75298854796958
O          -0.56817676371481   -0.54262881430450    2.16952662728443
H           0.24772004863895   -0.58912480353679    1.63069996320306
H          -0.59825283300966    0.37619705037506    2.47608884230144
H          -1.84295702616867   -0.87165881044349    1.08962673250929
O           2.79531335827053   -1.82691114178545   -2.35350973969151
H           2.35021020720748   -0.33894487328243   -1.97294092386894
H           2.24279285154677   -2.35364848746069   -1.71951204180721
H           2.49016593652842   -2.05884881629405   -3.23317333162763
N          -2.19818815484873    1.79161536373375    0.13541122726143
H          -1.19520666369663    1.79636812524414   -0.22950689667719
H          -2.16244528872154    2.19948846030702    1.06968624106865
H          -2.82576702005120    2.30510513996173   -0.47295734000087
