    26
        -50.46224025  Gyration_radius:  2.54831408016 Dipole_moment: 4.825
 S           0.99602568145505    0.26845008951058   -0.60024174498972
O           1.44818599698550    1.01475049867567   -1.88698541530318
O          -0.31429203210386    0.78501974423908   -0.22035113487564
O           0.88691920164989   -1.13884809190031   -1.02277003929274
O           1.98710455326451    0.46509244525039    0.43733945484761
O          -1.77662455437042   -1.80965336988972    2.10248117733251
H          -1.88499556979832   -1.47277134737314    2.99294122508744
O           0.88337325902481    2.70738363879823    1.28530014717777
H           1.44403590468783    1.90902615710205    1.22546821051129
H           0.03126505724236    2.39102725428290    0.95823605866800
O          -2.61227494649615   -0.44303467619557   -0.01642353425070
H          -2.46758391618088   -0.93173991572068    0.82794395007404
H          -1.85627357648623    0.18810195726642   -0.06119860922846
H          -2.08341649008156   -1.35294964533378   -1.00613245133747
O           1.97919279703823    3.40789822886132   -1.01407111750172
H           2.92262660598256    3.44673425557202   -0.84210036110161
H           1.63532030900232    1.96112689532967   -1.63617423392801
H           1.54168947920675    3.34433402122430   -0.12718497725955
O           0.85311396840047   -1.75888801678926    1.57295921347381
H           0.92736063892012   -1.79080885687125    0.60448174713959
H           1.38175278555573   -0.98452021507633    1.79842631560653
H          -0.80646947642277   -1.84383234125136    1.94078706527910
N          -1.45335098104337   -1.97103598827382   -1.69249295189108
H          -1.53517157873891   -2.95849293395717   -1.47216647997871
H          -0.44661952513651   -1.63339713442657   -1.48223786149778
H          -1.68089360129901   -1.79897266298961   -2.66583364274170
