    26
        -50.46224024  Gyration_radius:  2.54856314178 Dipole_moment: 4.825
 S          -0.65489800719087    0.76685686342519    0.63799913075231
O          -1.54842986076311   -0.39855338426026    0.75806203278098
O          -0.68902560443103    1.41545658790249    2.05050770754852
O           0.71264095295809    0.33057295391123    0.37867990170331
O          -1.12038535159044    1.72917537263512   -0.33911326808154
O           0.44980890618315   -2.18405319380410   -2.42511878333071
H           0.87601199126025   -1.87456479472715   -3.22560548996125
O           1.28002092653552    2.76574316268177   -0.69465381955076
H           0.33436437835103    2.54327227892099   -0.80304644173310
H           1.66816913651358    1.91843664844339   -0.44085131240925
O           0.59395345142563    3.65154028384739    1.69731707744979
H          -0.17814826190390    2.27002139173001    2.00303397806053
H           1.00365274668893    3.45094233318878    0.81755708222860
H          -0.06027661195213    4.33472574667680    1.53511864402494
O          -1.55557594306764   -0.47746071519481   -1.90960878712317
H          -1.76991371210777   -0.59860306927111   -0.96944735499567
H          -1.41512821216619    0.47448948336562   -1.97198193846327
H          -0.31941627535019   -1.58801382911009   -2.27863802462507
O           1.66131382019332   -2.06396930909605   -0.06396780226680
H           0.53316220328255   -2.52868990891939    0.71035683127181
H           1.35644911933381   -2.19631573499597   -0.99246340219996
H           1.49978856996499   -1.10670014832502    0.10755685299964
N          -0.43723130493676   -2.66641115691917    1.24792295555966
H          -0.29567607912355   -2.84201063684060    2.23683679488534
H          -0.98593881514810   -3.40828435285525    0.82495911056226
H          -0.93929218295684   -1.71760287242668    1.10858829493321
