    26
        -50.45652761  Gyration_radius:  2.46347258501 Dipole_moment: 4.625
 S           0.39205005611282    1.59638342505657    0.90007412286744
O           0.02959266152919    0.47067876843968    1.74908417217086
O           1.47196762468781    2.39175243719437    1.36680088317364
O           0.74455856233806    1.04203887994825   -0.49889931757113
O          -0.84180545660136    2.45898378877467    0.66519827558730
O           2.49599187054077   -2.11251393176432    0.14349285210099
H           3.27131528548545   -2.08296441926977   -0.41901559376983
O          -1.72411660146160   -1.31879695839271    1.06980509886728
H          -1.08233545141783   -0.66917105879828    1.44626512170273
H          -2.06177491524750   -1.83038529631522    1.80640573267955
O           0.17687415750332   -1.39265863292644   -0.90034423741012
H           0.48313124591678    0.05862960500409   -0.66079362662912
H           1.01293452575640   -1.79107699853110   -0.55386801833643
H          -0.52177180852258   -1.60945658460380   -0.25933405840017
O          -2.58281710826359    0.92554715717721   -0.29419753169996
H          -2.24152205403005    0.78198276255713   -1.22027469472244
H          -2.48966903451657    0.07184891032246    0.16151306407883
H          -1.61844140983130    1.86984140634320    0.29605562860755
O           2.66140427160062   -0.06580663373363    1.88722485768583
H           2.85803038066546    0.85575494631011    1.68455674751208
H           1.72828189305884   -0.04803636973924    2.14583004476569
H           2.62699289348743   -1.41906466875413    0.82619994236202
N          -1.37964638225197    0.49937681029944   -2.64117473934093
H          -1.83037617136915    0.51544145909028   -3.54679180851505
H          -0.92832829821270   -0.40078764781902   -2.52097990668483
H          -0.65052072693141    1.20245883411151   -2.63283302104771
