    26
        -50.45652782  Gyration_radius:  2.46353064965 Dipole_moment: 4.627
 S          -0.41826089555246   -0.69336657598640   -1.68994092014167
O           0.84042013224279   -0.02898312286498   -1.08770512540476
O          -1.15421605242893    0.44814133191503   -2.38076778527326
O          -0.01555792796397   -1.67021435292044   -2.63884069527159
O          -1.23354557791598   -1.18706813617357   -0.58953305131125
O           1.73885723472261   -2.12601954486945    1.77787609887022
H           2.68293908658761   -2.26646697997032    1.69169154125848
O          -1.92559711713897    0.27532416976518    1.44080135067604
H          -1.76318969711640   -0.35014796895974    0.69388748856946
H          -2.66308613930020   -0.07797943941039    1.94035626086954
O           0.54278385890998   -3.19646624494709   -0.38548035184927
H          -0.29945113186352   -2.72506906378376   -0.30633170450314
H           0.78926878649181   -3.06582990805895   -1.30819832870368
H           1.32169202674169   -2.60552110946698    1.02938307981867
O           0.81259557351639    0.32344208975303    1.41947029053273
H           0.80629788490033    0.13598051050217   -0.07116433631789
H          -0.12613924854440    0.33100203845183    1.67402059752482
H           1.17246267890810   -0.55737015308643    1.68858144802890
O          -1.64766644369779    2.13384700818522   -0.58634401312928
H          -1.41932720961271    1.17109701208319   -1.67879627683333
H          -1.87430682787514    1.63505835457649    0.21665128375475
H          -0.74653249441781    2.52748686787110   -0.42064825578652
N           0.87710614210349    2.88862959143858   -0.14396906228365
H           1.36222238312117    2.47038022233863   -0.92863377995196
H           1.14304773524180    2.36732301128615    0.68425552262317
H           1.19718323996361    3.84279039236140   -0.04062128578936
