    26
        -50.45652770  Gyration_radius:  2.46337609067 Dipole_moment: 4.622
 S           0.08055105414569    1.19144303441058    1.44422022338597
O          -0.85200111075191    1.55062108106251    0.38562482528408
O           1.39060244124704    1.93847080689917    1.22667327093681
O          -0.39091665233908    1.39154200517294    2.76870725417845
O           0.45353773378052   -0.29751287770259    1.26363231497097
O          -2.63971665038086   -1.92631279949165    0.17054294199740
H          -2.70906025933072   -2.71088457677838    0.71644621811062
O          -0.40707641684839    1.07888284762183   -2.12814227601525
H          -0.65249958316175    1.34940700240011   -1.21045971874428
H          -0.95406614400434    1.59434375583110   -2.72261154336655
O          -0.29096097858317   -1.36951764067218   -0.90644851792692
H          -1.19433564953232   -1.65185620478110   -0.62024143646919
H          -0.41352627280334   -0.63674548038658   -1.53414570772364
H           0.17114279043323   -0.71519994095151    0.36526269941498
O          -2.71608371195072    0.22059484455074    1.79605260790256
H          -2.34025154650596    0.86048117278010    1.17384224968079
H          -2.76520545533372   -1.16165127956041    0.77361350482382
H          -2.20273265831374    0.35802056703693    2.60020256357243
O           2.14186560674611    1.35083281485874   -1.09563349204326
H           1.74015898173341    1.76217122669171    0.26060823765496
H           2.44907775106223    0.40918517780052   -0.97904190124223
H           1.34374245411496    1.30627536749106   -1.64890089682758
N           2.69575471442786   -1.21801437205670   -0.61412674206834
H           3.52324943488122   -1.71110051164501   -0.92341727292409
H           1.87883776887931   -1.70955962673850   -0.95979788814146
H           2.65991234838340   -1.25391640384821    0.39753846157136
