    26
        -50.45652760  Gyration_radius:  2.46333155977 Dipole_moment: 4.623
 S          -1.01905280424042   -1.39701010785206   -0.72143138999458
O           0.36323953160342   -1.72726667363716   -0.40604791025640
O          -1.37173406338233   -0.08185483162812    0.00974354879956
O          -1.12108067398069   -1.04634106500984   -2.20068261464554
O          -1.97794678073331   -2.38689248430265   -0.37894153436785
O           0.33970708599687   -0.30286448039479    3.24050008198610
H          -0.31994411303053   -0.04519074208656    3.88614843359621
O           2.32533387587284   -0.04809147452804   -0.67079777432652
H           1.66465008791311   -0.77687061717836   -0.58142719713671
H           3.18951950476373   -0.46152427622196   -0.69501743015223
O          -0.54375883502418   -2.52336805081632    1.99742910867946
H           0.03535734012690   -2.47016246010770    1.22303983403199
H           0.03976614259351   -1.16172442652654    2.87101481335027
H          -1.41781440311119   -2.66686386549529    1.61728407294996
O           0.57288083208268    1.16094701764497    1.05196683686776
H          -0.56954235756416    0.42979943101833    0.40482219568784
H           0.58059758994041    0.70038810947846    1.92690196302363
H           1.36445733777782    0.86196380076190    0.57243326773713
O           0.52623054600170    0.80864316223884   -2.58496660973787
H           1.30516565751798    0.61309136694958   -2.03706840231667
H          -0.43241666539197   -0.29930065743662   -2.43397209992584
H           0.06997228574579    1.58108266011364   -2.14930961170616
N          -0.75904108519085    2.67816026952442   -1.17412154996116
H          -1.65864735540515    2.23998615631084   -1.01685505851054
H          -0.91461661596316    3.63440632382643   -1.46559835882296
H          -0.27128206490565    2.68685792536513   -0.28504663483254
