    26
        -50.45652772  Gyration_radius:  2.46340647022 Dipole_moment: 4.623
 S          -0.57108769391385    1.63042333555390   -0.72593359991849
O          -1.22323173878796    0.23683269849295   -0.58076359521680
O          -1.07369148409848    2.41067435255282    0.48239207958221
O           0.87088456537836    1.46311410390144   -0.61675510863909
O          -1.02772300331714    2.23062804098404   -1.92919624496779
O           1.04003639514541   -2.05676690001479   -2.32320987907832
H           0.46627473601139   -2.59424633757482   -2.87131152274952
O           2.01372394534484    0.18071817271879    1.32947533617954
H           1.68703272833202    0.72913708477312    0.57572097089746
H           2.94769828602903    0.37255076551174    1.42500992589153
O          -0.30334999336346    1.12953030606939    2.49947050411576
H           0.58371484362095    0.78771966757051    2.29609198421624
H          -0.75540900980086    1.94554521771687    1.35917314368884
H          -0.91252493155248    0.34001495109719    2.48545295019953
O           0.78862626898487    0.50199751831961   -3.12722005302070
H           1.00273842707566   -1.14930309800170   -2.69625538509613
H          -0.03181576526298    0.98350053880498   -3.28245145653513
H           1.14978671765123    0.91816113075542   -2.33084337846852
O           0.30972577556957   -1.62911968808449    0.18071812428400
H           1.04783221874963   -1.19257172589022    0.63966299151321
H          -0.59721193725673   -0.50845387768956   -0.24291339853107
H           0.64951244081802   -1.90246813790187   -0.70677469055052
N          -1.87481821636191   -1.00220764990390    2.14703825560207
H          -2.51093536732802   -0.67697819837934    1.42897934831000
H          -2.41405717393041   -1.46301709572145    2.86843110156937
H          -1.26173101377191   -1.68541513596045    1.71601160652024
