    26
        -50.45652763  Gyration_radius:  2.46348267848 Dipole_moment: 4.623
 S           0.10353504664488    1.62191283385179   -0.93207899340956
O          -0.61618223088872    1.33366458295442   -2.24372686450718
O           1.06772155382421    0.42751527125718   -0.75293497810459
O           0.86341503362041    2.81714618274341   -1.03537611176509
O          -0.86160022227259    1.58490929772818    0.15723641807941
O           1.57937387148967    0.15165563353117    2.86195557644133
H           2.52751807788339    0.05889200108101    2.96625800645304
O          -2.22916088839455   -0.53231498166863    0.77843860490642
H          -3.00102596677591   -0.35132928830316    1.31671943318130
H          -1.80050132740362    0.33847392439890    0.59526566532945
O           0.39561291106317   -1.28585381015805    0.98590853741153
H          -0.56624217051430   -1.18918725855008    1.09347680028137
H           0.76967627260545   -0.27818223235411   -0.06387375459974
H           0.81357591328269   -0.85730565319604    1.77284753031318
O           1.10515545671591    2.54530686638762    1.72009306586701
H           1.42841684908990    1.06497498650521    2.53449976012657
H           1.54013331922385    2.91347346008606    0.94273722055934
H           0.20646290458881    2.35885911940391    1.41108354995767
O          -1.77429796740145   -0.87136795581743   -1.92627122399185
H          -1.14833393931090    0.44110905077604   -2.16492546380099
H          -1.00937106801841   -1.51038385033441   -1.95670772432243
H          -2.10291721713532   -0.88968052072245   -1.01152745523382
N           0.42926625355673   -2.37834375403872   -1.81347644141568
H           1.14270801406265   -1.72867190070109   -2.12165342368863
H           0.56751804644688   -3.25799354362572   -2.29373258010067
H           0.56954347403846   -2.52727845122990   -0.82023515395593
