    26
        -50.45652776  Gyration_radius:  2.46363435539 Dipole_moment: 4.630
 S           1.01028365211127    1.00245709595073    1.21992211667139
O           2.29822822328028    1.56529636469488    1.42299495665592
O           0.32274757301222    0.75122351722145    2.55632033782111
O           0.11792228147379    1.77073526446005    0.36399219599593
O           1.16904387127601   -0.40419443810221    0.59975671477764
O           1.24788248642147    0.16041247397857   -3.02141382888434
H           1.98899417383176   -0.35964480398450   -3.33563681887216
O          -2.20473690018340    0.90853372589080   -0.41180672412870
H          -2.78741465648006    1.59812229063014   -0.73315258389247
H          -1.36641708448137    1.35139013117162   -0.13527220507612
O          -0.41194734043978   -0.96210590874757   -1.29769001006738
H          -1.17579006546562   -0.37023014991004   -1.18657627654041
H           0.12548817374237   -0.59437185661539   -2.04181038934399
H           0.50179284593186   -0.63095113967292   -0.15196604679194
O           2.20254835173480    2.01604951518075   -1.31764272634578
H           2.80911308362854    1.87291634075399   -0.58226228824446
H           1.63170280088380    0.88449676642145   -2.48071285026946
H           1.36350724663018    2.22695975092053   -0.88245727229979
O          -1.85252129954149   -0.37768235955937    2.00959207974120
H          -1.55013828864521   -1.29118911414512    1.74753993984244
H          -0.60810130657719    0.31139659024826    2.39554795280125
H          -2.19004923074623    0.03627442026611    1.19739686773254
N          -0.81526794076126   -2.67953034185029    1.13535871443810
H           0.15071801594768   -2.59965758218555    1.42947811798646
H          -0.82963076704588   -2.58210182852487    0.12603077228304
H          -1.14795790943615   -3.60460473453906    1.37446925399024
