    26
        -50.45652773  Gyration_radius:  2.46339771896 Dipole_moment: 4.624
 S           1.80946022520482   -0.47462600991570   -0.10542281576157
O           0.78932117090968    0.08612265959545   -1.12204471953847
O           1.06418657516591   -1.08280475706440    0.98729083688601
O           2.71173184043674   -1.33578471987774   -0.78439765121428
O           2.53948816940757    0.75688705382940    0.41609887278145
O          -1.93580591547448   -2.35932952251896   -1.17917889094519
H          -2.11268129877029   -2.50615984684398   -2.10954639271850
O          -0.83887645923801    0.13475816335996    2.26642040429808
H          -1.05398892995475   -0.26172860082949    3.11189595240093
H          -0.10161397787237   -0.39843787359555    1.88229137976761
O           0.77640241099858    2.22046949412799    1.44241265925225
H           1.86281829685169    1.39375281631097    0.88796807609116
H           0.30890023212317    2.57403914169133    0.63559870512594
H           0.14135103762389    1.63182309472616    1.88428177027798
O          -1.62417441503872    0.13352689868047   -0.35715237547228
H          -0.18499147811031    0.12768473921565   -0.78972806212148
H          -1.87738645913481   -0.78029121683415   -0.63725972560756
H          -1.59257157341319    0.12858385097291    0.61495659370421
O           0.59663672749186   -3.13517581909563   -0.68687830922369
H          -1.04554112574807   -2.73602077799922   -1.00725773202832
H           1.38368565379092   -2.90037436305684   -1.19128293418906
H           0.71124417058794   -2.65944577078601    0.14879050190680
N          -0.46889781584287    2.86687765898010   -0.83143683910596
H           0.18527869376880    2.53464662877467   -1.52981093853835
H          -0.77375194248978    3.79527301260305   -1.09349397616498
H          -1.27022382326376    2.24573405555185   -0.85311440986253
