    26
        -50.46515677  Gyration_radius:  2.51566879795 Dipole_moment: 4.766
 S           0.59017296956741    0.15956009661738    1.10393315745781
O           1.74720880819212   -0.57524796831038    0.65028209582420
O          -0.39747938656004   -0.68310884138779    1.79158040103204
O           1.06476618542404    1.24462114410570    2.10130070215701
O          -0.07663780303599    0.84172967398183   -0.01768409819717
O           1.38773680665651   -0.85339840866385   -3.23936000415377
H           2.13694348051868   -1.06254673366607   -3.79916108961693
O          -2.28176982312954    2.02073006935049    0.76245608942771
H          -1.46225358348184    1.60101060396641    0.41188112328582
H          -2.25639888239113    2.93452828249409    0.47344839410000
O          -1.25842948818600    1.47234127191015    3.20489157938173
H          -1.79900221464252    1.78671489583619    2.45029240458929
H          -1.27284433772556    0.50810409568777    3.13448647943310
H           0.25332441186670    1.48794137565593    2.63426936538479
O           2.11288807134101    1.04408699052890   -1.52821869679781
H           2.57201697668513    0.52697297084124   -0.85352530108062
H           1.65576461094079   -0.06521282834392   -2.70359009795637
H           1.24493718922726    1.20437358664653   -1.11675763638261
O           0.82954216814826   -2.35217817460577   -1.12654211814325
H          -0.55448639763336   -1.97596575651049   -0.80421460983490
H           1.04209624568164   -1.90189467094564   -1.98156216637230
H           1.30711765348668   -1.83933583792061   -0.43939995722430
N          -1.47511661949752   -1.51333573195184   -0.39746192788586
H          -1.18239617998673   -1.25023769054163    0.59933678145177
H          -2.28465314102945   -2.12467811997296   -0.42348296448073
H          -1.64304773044083   -0.63557429485135   -0.88719789535949
