    26
        -50.46515670  Gyration_radius:  2.51572110503 Dipole_moment: 4.769
 S           1.06677747576996    0.25025327516035    0.62559450168315
O           0.01007966359459    0.81374531312242   -0.23099592609442
O           0.46148090639788   -0.17650941537712    1.89436968104392
O           1.77359083343462   -0.81059554185450   -0.05232648104552
O           2.07515599296757    1.38304006629696    0.93803562346909
O          -0.46601971047332   -1.81872365952610   -3.10288736744277
H          -0.11079329123286   -2.30938820205134   -3.84547237940456
O          -1.40005113500664    2.60654371934197    1.05625201466332
H          -1.42598971155453    3.40749815834857    0.52992371029611
H          -0.90382305528106    1.94468726883484    0.52105027163889
O           0.62453837888877    2.36874330469282    2.83298245350171
H           1.65712743195566    1.91401386364115    1.67638175297794
H          -0.18090767402382    2.63104645635883    2.34011677240950
H           0.48025518146190    1.44171339042640    3.06667017582328
O           1.19025349650603    0.17897834362998   -2.53783975673019
H           0.65451470686352    0.62014169984296   -1.85477643039067
H           1.86375997696677   -0.27486198500954   -2.01442265707970
H           0.10780126413840   -1.01829430862447   -3.00184073475420
O          -0.06965807144591   -2.66371131656475   -0.62300678988877
H          -1.07344707061978   -1.91894461137706    0.15006327052167
H          -0.25740837717868   -2.46673410611582   -1.57434956255934
H           0.73183215676907   -2.14097207483954   -0.40485565709561
N          -1.62593685437053   -1.18099846980493    0.76457754943156
H          -1.92255074335074   -0.41294154999306    0.16414375364011
H          -0.85874154036730   -0.78689069969356    1.40051209645180
H          -2.40184020082804   -1.58083889884644    1.28210009490808
