    26
        -50.46515660  Gyration_radius:  2.51616950337 Dipole_moment: 4.763
 S           0.67779110069329   -0.76795549710228   -0.73339530769498
O           1.79019172897071   -0.74692571638184    0.18683287291155
O          -0.07581184878887    0.49585235859610   -0.68127722412541
O           1.23785305446048   -0.92450839179814   -2.16835387200901
O          -0.25376701392485   -1.87749720722082   -0.48988566727068
O           1.11477369253558    2.23721856928697    2.63023222601424
H           1.81620215209853    2.61846780994630    3.16036826200338
O          -2.19933896194812    0.39324849709151   -2.21142872817048
H          -2.19174544893285    1.15568495554941   -2.79275359049609
H          -1.41525049643233    0.49126931255314   -1.62284430602576
O           0.72262889604348   -0.38346021069527    2.61245017800732
H          -0.62833306616642   -0.51774834985392    2.04931766065864
H           1.25703718568828   -0.61680378561677    1.82300041611924
H           0.86703486013713    0.58618746039350    2.74647509057928
O          -0.98209221995880   -1.84828744223433   -3.10831251332468
H          -1.00782459425100   -2.34731512539500   -2.28057763197960
H          -1.58133676981408   -1.08702263180185   -2.96055310935685
H           0.47517729498365   -1.27375668774154   -2.71464924877010
O           1.98378164634948    1.98400438335416    0.13299991014675
H           1.15299976413854    1.68632010245308   -0.27858111758362
H           1.42837632621546    2.27272596533364    1.69195709313598
H           2.49338106535059    1.16522967089403    0.19131222221081
N          -1.51032029258923   -0.64124204244168    1.39041562209846
H          -2.32276259470422   -1.02320795481331    1.86345647555415
H          -1.13618081606140   -1.28340444683991    0.61846728571705
H          -1.71246462409206    0.25292637452071    0.94532701166348
