    26
        -50.46515677  Gyration_radius:  2.51553789252 Dipole_moment: 4.767
 S           0.60560349884276    1.10645629994112    0.05013210687524
O          -0.10913261745415    1.50276712814588    1.24030311495723
O           1.87958202018083    0.43350302066587    0.33745921089361
O          -0.21502943347258    0.21674413504565   -0.78821971896568
O           0.91653515241768    2.37873771374152   -0.77581020863345
O          -3.12637748395016   -0.97400259106686    1.55719640486662
H          -3.88675116592341   -0.77095495017160    2.10399778846132
O           1.13889106441818   -0.66178774001919   -2.85103920810957
H           0.57968397393517   -0.36169370482554   -2.09746788365794
H           0.62870953849844   -0.49055382022089   -3.64450704166465
O          -0.67343620074931   -0.76757137155987    2.53832250835663
H          -1.61598042020138   -0.91429536508739    2.27556845815533
H           0.13801709913530   -1.53091617233423    1.57923310067930
H          -0.46367433866859    0.14563100183001    2.24637791293410
O           2.86253113083913    1.26448802083820   -2.05582945564777
H           3.08085605783856    0.88976971020688   -1.19165465791457
H           2.39407426716488    0.54562385010571   -2.52936948568225
H           1.67401033478395    2.12485348598414   -1.37873875286088
O          -2.56085627985662    1.15299633851864    0.07053726977040
H          -3.02290352102181   -0.21074419308954    0.93520607049170
H          -2.06430081838332    1.69642882662716    0.69623827315742
H          -1.85546050781485    0.76182745959096   -0.47513710905498
N           0.77998745437188   -1.86246586200325    0.73962438240879
H           1.40510177093548   -1.00806304396716    0.57330519298345
H           0.20226139572464   -1.96087953532815   -0.09402689418390
H           1.30805803847223   -2.70589862158216    0.93829860142454
