    26
        -50.46515666  Gyration_radius:  2.51597819389 Dipole_moment: 4.764
 S           0.36128665388239   -0.33554826566057    1.16005732848929
O           1.31199118546059   -1.29114180071068    0.64277289012368
O          -0.95676340636283   -0.92234721909108    1.43698093820934
O           0.91726132577805    0.23145226768869    2.48925191110351
O           0.18537245539711    0.79226001496354    0.23002568071176
O           1.72390435907776   -0.45312804610539   -3.16022394230565
H           2.47682054405578   -0.76740175005534   -3.66294655624079
O          -1.67375713333493    2.43330156889806    1.07337369550636
H          -0.96441530950734    1.85504246022478    0.70830469053239
H          -1.31286758880215    3.32152352232972    1.08354888890633
O           2.60342388935123    0.58421976171554   -0.87857630702822
H           2.72957325908400   -0.21089126542214   -0.34439363740130
H           2.09587162131988    0.03289036678026   -2.38212350247282
H           1.75757202803194    0.93126237482779   -0.54351907327933
O           0.30143968761379   -2.13429912545431   -1.68616599894417
H           0.75365013961521   -2.00852063256228   -0.82419142042746
H          -0.93999353875234   -1.39031414191046   -1.42937422043347
H           0.81714619571662   -1.59014188884946   -2.33183329811456
O          -1.40776420719524    0.97196548442693    3.33307946319526
H          -1.69735666389434    0.12360276654979    2.97077612539273
H           0.12276452448062    0.60075346972426    2.97333531581695
H          -1.65511047971034    1.63233349860093    2.65252581801421
N          -1.74274929494208   -0.75136478444561   -1.01166195664632
H          -1.52988313787038    0.22190991735986   -1.22594312385840
H          -1.60347958789321   -0.86383096258480    0.04488145097932
H          -2.67393752062161   -1.01358759117290   -1.31796116975694
