    26
        -50.44829513  Gyration_radius:  2.456348023 Dipole_moment: 7.707
 S           1.63434771598718    0.93124195777020    0.90185798940955
O           0.54754221522848    1.90762489342548    0.90173884277844
O           1.21440429174491   -0.16573967660527    1.97245501711421
O           1.60896341713556    0.17788546281603   -0.38369773271716
O           2.91973826834996    1.43377081999960    1.22631751070759
O          -1.57339427506643   -0.69972090952111   -1.61059961538070
H          -2.10324120459115   -1.00618017899268   -2.34725421781618
O          -0.32341737823875    3.38656115001544   -1.12077621263622
H          -0.02903110537378    2.92951865900112   -0.30452327505554
H           0.27490513447694    4.12579175435643   -1.23820226561153
O          -1.30915405772117    0.07496124995001    1.08889985211612
H          -0.88148833657502    0.95242024562439    1.01183161737943
H          -1.62923266633597   -0.13056314634946    0.19865589158314
H           0.25333353861888   -0.17847327517345    1.82698208827569
O           0.08261194815124    1.06861688042732   -2.40464846414008
H          -0.17099592209614    1.96950772812028   -2.11149085857406
H           0.80700898379364    0.80944996429993   -1.80179838744068
H          -0.98611746362964    0.05113480558515   -1.97778408914506
O           0.42916764185533   -1.96126917869007   -0.60838075476575
H           0.14461405772405   -2.28816839223397    0.35507959629549
H          -0.40260263853651   -1.59278731841926   -1.05651713574267
H           1.03249458716280   -1.07333036025727   -0.48481337751595
N          -0.31242416938806   -2.66012642509106    1.74088586404079
H          -0.58392918448086   -3.61623287921873    1.93008120900872
H          -1.09424936689917   -2.04380302195122    1.93856036207927
H           0.45014596870309   -2.40209080889128    2.35714053575305
