    26
        -50.44829506  Gyration_radius:  2.45636668759 Dipole_moment: 7.709
 S           0.88173960235938    1.08844093534963    1.54549673646209
O           0.07432969025427    2.03398744410812    0.77838133085371
O          -0.16287421447923    0.16708025134969    2.31089202559109
O           1.54366141614334    0.14129661744005    0.60440518208206
O           1.77919267950565    1.65772846899923    2.48388376835873
O          -0.40645786422495   -0.96971623285314   -2.11086619948929
H          -0.43604456947157   -1.39737903321938   -2.96736454319037
O           0.65075862715985    3.16266206634355   -1.55184018196272
H           0.38250618435253    2.84443562352287   -0.66379191259203
H           1.26440557766840    3.88258174635280   -1.39856161609489
O          -1.68734080343013    0.22331247320897    0.10126720312072
H          -1.22641344726530    1.08468821531835    0.16755482714290
H          -1.45082453465474   -0.12471756541401   -0.77062425096688
H          -0.86151591665239    0.11573447735406    1.63703066470164
O           1.53760069775215    0.67761166874458   -2.02615070009729
H           1.23362611643725    1.60931352629915   -2.06257159935562
H           1.75852746060668    0.52844124991885   -1.08577591279989
H           0.34195562572893   -0.27673487122428   -2.16662299347589
O           0.54543723534675   -2.02499355314454    0.03071302647864
H          -0.26709172014248   -2.20109552596194    0.68258882102561
H           0.15638067509502   -1.74511379332434   -0.86298588048329
H           1.03453895153700   -1.11922606726975    0.35919989840326
N          -1.46627246526493   -2.35766360648998    1.57970253526216
H          -1.18059672976415   -1.99432374776482    2.48205120003966
H          -1.87160577520317   -3.27625635496137    1.70436499096002
H          -2.16762249939548   -1.73009439268092    1.19962357002813
