    26
        -50.44829505  Gyration_radius:  2.4564055541 Dipole_moment: 7.710
 S           1.63258649552737    1.20959514841258    0.47092996093557
O           0.93669063710867    1.86174393093698   -0.63579776910930
O           2.92007789307173    1.71703602863867    0.77915380435685
O           0.68175460802989    1.39092717280985    1.73147058087804
O           1.62338274588322   -0.26387907592175    0.24819469021030
O          -1.36275386367067   -1.62440077466379   -1.03191049278357
H          -1.80535524595645   -2.36786006996344   -1.44264595050973
O           1.00917286105038    1.22869324629935   -3.21081585472444
H           1.82461841844612    1.56552502040803   -3.58482568285549
H           0.97164932221282    1.57335058255634   -2.29345188089416
O          -1.40592140600356    0.95974186275281    0.09826685019991
H          -0.71380749613935    1.42267748891133   -0.41705031134022
H          -1.59176872724097    0.14915872998811   -0.39742241498206
H          -0.18423201970715    1.31243821490595    1.29714503719963
O           0.89512878586183   -1.22994736613928   -2.14833292996479
H           0.89122326228487   -0.43173031206506   -2.71810092401524
H           1.36359954187558   -0.94994658213079   -1.33747078165597
H          -0.50562578613328   -1.47488663547968   -1.56710025692356
O          -0.10951256327343   -1.70945152816866    1.21050117609736
H          -0.67332567232675   -1.79523801777016    0.37198227020723
H           0.70891949877202   -1.09092863590413    0.87134392647005
H          -0.66884136464280   -1.14296952907634    1.90503126973370
N          -1.48577311714106   -0.26483357160473    2.81537008038813
H          -2.08159848511843   -0.69531392761421    3.51059338746574
H          -2.05120758270658    0.30771592473150    2.19678635113211
H          -0.81908072006231    0.34278269515214    3.27815585448284
