    26
        -50.44829509  Gyration_radius:  2.45635344383 Dipole_moment: 7.708
 S           1.82536407187554   -0.98609353853613   -0.21498702060973
O           3.11543836370434   -1.54155482575998   -0.02200585655157
O           1.32807542001430   -0.23699774150608    0.97343710987291
O           1.65893905325275   -0.15439948807261   -1.40457942563992
O           0.76643792783736   -2.16089924205194   -0.37133034594030
O          -1.61482839772087    1.64131652511339    0.50759233315299
H          -2.20221082592283    2.32402131960249    0.83348749252996
O           2.02459179338374    2.46288983697996   -1.63362465406537
H           2.96477093364490    2.63479575271087   -1.70280370324314
H           1.92709811313154    1.48731117379423   -1.65869977925731
O           0.81024074353772    2.38820906200060    0.75511911915459
H          -0.67130429578332    2.02818798542855    0.56717529930928
H           1.17029056951321    1.50315770587362    0.96092512517295
H           1.21388727296330    2.62354532827975   -0.10713146083601
O          -0.94871272834916   -0.35350024171270   -1.37207015188019
H          -0.04537205508212   -0.08954059711767   -1.64259175368542
H           0.04105901579966   -1.67331922029993   -0.79667955944127
H          -1.30976408691811    0.41587710082722   -0.90845987858933
O          -0.96994459944573   -0.48795775236427    1.79468882828739
H          -1.34037079463995    0.35755711060932    1.37483389542732
H          -1.41575215348264   -1.30483287367672    1.29460615777083
H           0.06832162720047   -0.45281582593378    1.49756020378216
N          -2.02697902245981   -2.42008878610226    0.48850159772077
H          -2.86785315998422   -2.86923898414330    0.82733564129278
H          -1.29584198455591   -3.11504165092692    0.38699962399211
H          -2.20558080151346   -2.02058812301350   -0.42729883772460
