    26
        -50.44829497  Gyration_radius:  2.45643382044 Dipole_moment: 7.713
 S           2.06765659147824   -0.08851651276128    0.25684914958219
O           1.31394844533687    0.09363175301957   -1.01565222867895
O           1.58657816939382   -1.51689894171332    0.76120392837016
O           3.47329507174149   -0.10649071853528    0.07274707130623
O           1.56467976157474    0.86091540301409    1.24695856685553
O          -2.14441665858342    0.68471118496789   -0.70218394141106
H          -2.95859027601381    0.97585080909083   -1.11410772035993
O           0.82288869465514    3.37893050642602    0.86514814817554
H           1.13387106860765    2.48204597113947    1.11151458748956
H           1.60953903634907    3.92315471662692    0.80774693271954
O          -0.67232962261100   -1.24424973864171   -1.54883693360060
H           0.25731105851976   -0.72676418516459   -1.36288611433139
H          -0.74542919841006   -2.02840113407953   -0.84455963020645
H          -1.36053629954660   -0.54537909947525   -1.29052760351296
O          -0.24010120606604    2.26044173969922   -1.32705415159521
H          -1.44332977231261    1.39173790519975   -0.93061051502420
H           0.02571276474363    2.83471507833222   -0.57785646407396
H           0.45360427702442    1.57302272646955   -1.36719681680600
O          -0.72833671126608   -0.37131055729251    1.49701578028426
H          -1.37162218158530    0.05554053918452    0.91288617312866
H           0.72201053898685   -1.27714853675466    1.13495679807860
H          -0.01562134214691    0.28895044345377    1.61961553699949
N          -0.84762665935244   -3.07098973414453    0.23685365791806
H           0.10423683046911   -3.36834596652859    0.41937378797026
H          -1.42684095261240   -3.88606878745545    0.08228382843396
H          -1.18055144837083   -2.57308486407746    1.05631820229015
