    26
        -50.46972958  Gyration_radius:  2.43081050587 Dipole_moment: 5.137
 S          -1.39309543982931    0.67849924990823   -0.25554533927115
O          -2.01785311064041    1.08826272324404   -1.48575170526592
O           0.16296875631258    0.74595317597879   -0.56451481110336
O          -1.63976186579014    1.51860777022855    0.89208827347500
O          -1.63954268946188   -0.74483053133465    0.05274131662522
O          -0.98154953399581   -0.68458554688488    2.60697505397553
H          -1.35168025236955   -0.83080597255009    1.71196981976920
H          -1.37729072010929    0.14181477101484    2.89892658556476
O           2.34703197455556   -1.51076320020613   -0.31614120327649
H           2.08924407008340   -1.07694142012814    0.51697334785231
H           2.93735838702003   -0.89662420693022   -0.75684572490668
O           0.44286844155552    2.56274064081533    2.15272497396518
H           0.49409437529802    3.49857563653027    1.95712919430907
H          -0.38087047445590    2.24149074439406    1.72323263549881
O          -0.47765875230702    0.06693196124713   -3.30117814098964
H           0.21313053649116    0.73032133491561   -3.35798328223923
H          -0.10575454023292   -1.19974920362552   -2.38568092681616
H          -1.16345363453633    0.47133288185287   -2.70618720439470
O           1.34645189894873    0.09047594407409    1.66870465895436
H           1.36577361957419    1.00256040321450    2.00930865450326
H           0.57552160358132   -0.32321265930925    2.13818317680782
H           0.63570451931936    0.52588066138396    0.28346375864590
N          -0.02487914254807   -1.89081858650763   -1.58504613074361
H          -0.22897531855695   -2.83856883165130   -1.88378970364959
H          -0.74800276832871   -1.54260631498226   -0.87278209099406
H           0.92022006041992   -1.82394138470147   -1.14097519629092
