    26
        -50.44829502  Gyration_radius:  2.45641960656 Dipole_moment: 7.708
 S           1.24632630174617    0.88082806571517    1.42130142733317
O           0.08842306336577    1.76044975937754    1.27950136801221
O           0.70490344093271   -0.40934052218524    2.17519657710946
O           1.62348347864212    0.35585303907692    0.07856588101364
O           2.34658574559374    1.41469183628283    2.13856409128239
O          -1.04199699339798   -0.52757919769193   -2.04826831360032
H          -1.33682085157272   -0.74169752653187   -2.93404368155769
O          -0.41700843041602    3.49727357039170   -0.66083597480874
H          -0.28403202936769    2.92994522145694    0.12799097682484
H           0.10586540345247    4.28574950049040   -0.50856720473789
O          -1.53666988457828   -0.20797935468723    0.71019848055285
H          -1.60406231174984   -0.28158466185090   -0.25277444356826
H          -0.18338616550391   -0.46773444966931    1.78489225108013
H          -1.20526436522111    0.69850811817535    0.87558204080452
O           0.54816943238690    1.46412574261046   -2.11755413380011
H           1.12707762203376    1.15937233113760   -1.39138287157602
H          -0.47143438547469    0.31510034442739   -2.13625830907310
H           0.13125522982996    2.28217690201339   -1.77293294323365
O           0.78373603552935   -1.79303587972099   -0.75533032055626
H           0.31091879990863   -2.29887747841922    0.04252942453784
H           0.05089112067550   -1.41473328451879   -1.34543179089794
H           1.23415240326963   -0.89807464681626   -0.35084082998944
N          -0.42613346607854   -2.93290925718375    1.19248443047320
H          -0.62685469612266   -3.92413040181918    1.16236552706781
H          -1.29655898117064   -2.41630121292255    1.26844685826271
H           0.12843448328928   -2.73009657714107    2.01660150304698
