    26
        -50.44829504  Gyration_radius:  2.45637799288 Dipole_moment: 7.708
 S           1.97473165046636    0.61609348921305    0.26735435126328
O           1.62853374809620    0.91781196980069   -1.11954822004346
O           0.80100835188287    0.91428600206285    1.13586031437635
O           2.08435389222695   -0.96787694874972    0.33876430008726
O           3.17971038005356    1.19061982738764    0.74486695056808
O          -2.35270931220888    0.01886620178433   -0.15179341090355
H          -3.30530594547578    0.10139102396071   -0.09613552435552
O           0.17936332432734    2.94092624000166   -2.03804835938521
H           0.77653314326768    2.20124583070285   -1.79706365306799
H           0.72711345698609    3.72711295291462   -2.05133476973155
O          -1.26279940195508    2.30629707907899    0.13065595176098
H          -0.90650379949343    2.65251006465463   -0.71495824049236
H          -1.98335147496065    0.97007561622372   -0.10418006626236
H          -0.47649387633338    1.98673858417122    0.61535990421640
O          -0.03278505399127   -1.09313014839613   -1.30864316750618
H           1.37635739804844   -1.21020091314516   -0.28153720885214
H          -0.92678513672386   -0.77143319016920   -1.12285724275337
H           0.48307071823955   -0.29513336434911   -1.54526683437525
O          -0.83132712287293   -0.81248024758618    1.74574873241488
H          -0.06138890727160   -0.07667763821541    1.56278220484553
H          -1.53895042499096   -0.55357166219007    1.06706964885138
H          -0.44842295533061   -1.75238920395786    1.45247330514034
N           0.10632457091067   -3.05293191658991    0.93429330041452
H          -0.26201666688018   -3.92366344500535    1.29462010170992
H           1.10362613449948   -3.01420605263980    1.11224517439333
H          -0.03188673051146   -3.02028015096309   -0.07072753231604
