    26
        -50.45812142  Gyration_radius:  2.42451846504 Dipole_moment: 3.421
 S           0.54801117955563    0.83851370088440    1.49886690763985
O           0.34690644053045    2.25278327443858    1.33128021612337
O          -0.80473015224426    0.10042350963159    1.38912230327304
O           1.33864154445393    0.37167715339252    0.26056854261054
O           1.17312828811026    0.39589424681337    2.69978253479008
O          -0.72387895072083   -1.12587075141967   -2.07655470525667
H          -0.90764295090140   -1.59063851490850   -2.89387679053836
O          -0.39937732350805    2.82449740057448   -1.09599773322251
H          -0.05332124544897    2.66181943905166   -0.18123789469661
H          -0.58913444696526    3.76295491433466   -1.14305287306791
O          -2.09873221101968    0.75749107746680   -0.68339756480216
H          -1.37733409763993    0.40634374114054    0.59610349712732
H          -1.63463869798430    1.56782460998129   -0.97001616467663
H          -1.78244897919414    0.03487995127384   -1.25915341930575
O           0.98531530812609    0.85355076710850   -2.44618762291968
H           1.56015039022619    0.68731739902602   -1.68824835688032
H          -0.04308580147353   -0.43436041475801   -2.29507428362443
H           0.50168519495391    1.66072134836231   -2.20545816936046
O           0.96374305331351   -2.05206564404319   -0.06263737689723
H           0.64037968257216   -2.29580176341807    0.85920075684809
H           0.19952355687449   -1.98550755743797   -0.65984400711849
H           1.26479190390397   -0.68354171525962    0.14452962930801
N           0.27692721963670   -2.31333549700107    2.45732499242591
H           0.67934750079289   -3.01381880309425    3.06755387030508
H          -0.71970496671877   -2.27749148146848    2.63136251125125
H           0.65547857076952   -1.40426039067248    2.72504121066551
