    26
        -50.45812143  Gyration_radius:  2.4245143903 Dipole_moment: 3.422
 S          -0.73957408980322    0.52907317684430    1.55668472841096
O          -1.16991703392374    0.78645670596787    0.09899602650044
O          -1.83409506642913    0.05558069957153    2.33558865714219
O           0.28217182731474   -0.62531903492487    1.45520134792540
O          -0.07767202289201    1.72918899475065    1.99291644735902
O           1.00414784318695   -0.68768794388027   -2.15006501445235
H           1.30292183957586   -0.93665301305665   -3.02558570872540
O           1.57497357573644    2.61216534224983    0.18616975196949
H           0.91010964807009    2.35140168487362    0.87387249153311
H           2.04294497858620    3.36791981687664    0.54498802865149
O          -1.45714937593092   -1.38656736263899   -1.04764880066161
H          -1.38296450753588   -0.13087430647629   -0.39671157737926
H          -0.55456484639642   -1.46644701822186   -1.39992018406445
H          -1.55148132338011   -1.98783552051062   -0.24553614182706
O           0.19886724084384    1.82665722413928   -2.07532911792738
H           0.67805817879452    0.24930158191119   -2.22175311378325
H          -0.61869863817495    1.69846695350108   -1.57763769388352
H           0.79275426290776    2.26954178720962   -1.44721595852646
O           2.33055970087194    0.01321114340238    0.11426890732749
H           1.15149133054133   -0.36443144944203    0.97924580467520
H           2.02389195162136   -0.32860106009945   -0.74761886983415
H           2.25657535543041    0.98631796081802    0.07227407188228
N          -1.76909328493413   -2.59795950524894    1.25999014276465
H          -1.92325719629268   -1.72888390416184    1.77215926445384
H          -0.92711137257398   -3.01424729402020    1.63769371917119
H          -2.54388897521187   -3.21977565943163    1.45497280129499
