    26
        -50.45763560  Gyration_radius:  2.4218312508 Dipole_moment: 7.920
 S          -0.07052037346068   -0.39436609494254   -2.07929835670479
O          -0.37209256743711   -0.67230688458562   -3.43813397862429
O          -1.17737944914888   -0.62208265210690   -1.13848785299657
O           1.09144687147207   -1.34672943461018   -1.62718240390889
O           0.43754988557143    0.98709198499100   -1.84464438272935
O          -0.35352931539515   -1.33995827396307    2.25759635678907
H          -0.35807111734600   -1.85552865172905    3.06477156800036
O           2.02186764416874    2.07252087337584   -0.03528083632703
H           1.58528653755137    1.68734719774164   -0.83006726486180
H           2.91740700954707    2.28709988119785   -0.29954637847582
O           1.80415280287558   -0.54186823921854    0.75400994881241
H           1.91799142819965    0.42226517159524    0.69572384514131
H           1.09206656245421   -0.71868119548906    1.39290534700154
H           1.38603706575073   -1.04596752544518   -0.72832019749399
O          -2.16690953687978    0.34191058135143    1.11134304302983
H          -1.40309013582107    1.54060834880908    0.55889763474779
H          -2.09059877274046   -0.13038276839791    0.25662901728238
H          -1.60675796163385   -0.18074398459333    1.71503977895057
O          -0.66765901860058   -2.84073213279219    0.13187993400154
H          -0.96375104315886   -2.08851338492300   -0.43485570922902
H           0.14594059843179   -3.14870193544203   -0.27569761598605
H          -0.50133950471353   -1.98671237914731    1.51137185306203
N          -0.82535305672296    2.25239103877560   -0.01665935635378
H          -0.02777460373122    2.61018823783396    0.50878382937147
H          -1.41044480350936    3.01123403752313   -0.34920425399350
H          -0.40447517572347    1.70061816419243   -0.86157353850588
