    26
        -50.45763560  Gyration_radius:  2.42183160548 Dipole_moment: 7.920
 S          -0.67544574654342   -1.85957600405342   -0.75484424944807
O           0.08910937501065   -2.31424090304202    0.53755979654126
O          -1.35298731366916   -2.98533220012469   -1.29172799991605
O          -1.54624735784960   -0.74729213341069   -0.34662479465085
O           0.37124495802854   -1.29932505676078   -1.65605670318083
O          -0.34353685978322    1.46722587408865    2.17864762429133
H          -0.37183176297448    1.93045705848129    3.01648775740228
O           2.61028055861877    0.03714240368957   -1.25276946762419
H           1.89434538512739   -0.61198704189793   -1.44436755447305
H           3.43615176427554   -0.43783509930823   -1.35380071803410
O          -1.55706258509763    1.89002000604471   -0.22539239648978
H          -1.12845989698287    1.96541792117094    0.64753934560491
H          -0.52681389018105    1.62479454416859   -1.31795957073090
H          -1.86216185937834    0.95971020323886   -0.25458500301656
O          -1.68013298912591   -0.78601132838523    2.25657656924670
H          -1.16368666900310   -1.56034035412639    2.49450706999656
H          -0.89325515594687    0.64200557200641    2.29620479319823
H          -1.77482449143470   -0.83871001116781    1.27527754238098
O           1.56548581386222   -0.28321597232871    1.25942420525104
H           2.03202371793733    0.01542900579698    0.46000760213179
H           1.00081670626305    0.44803327759902    1.56428987224514
H           0.66804621123625   -1.55857311518937    0.81862112780714
N           0.14136595206451    1.21425589561776   -2.06407008328410
H          -0.15727881923963    1.46926248149013   -2.99924119886491
H           0.11509841536837    0.12812119543617   -1.94124038146213
H           1.10975651941635    1.49056377096472   -1.90246319492229
