    26
        -50.45763559  Gyration_radius:  2.42183031061 Dipole_moment: 7.920
 S           1.72318499985999    0.70546368337530    1.00845734094028
O           1.56680668646124    0.64052532307323   -0.45216735802897
O           0.50854419628427    1.37190317234347    1.55812356034908
O           1.65323342787174   -0.77519255262479    1.52262635836558
O           2.94343456252416    1.27594683245935    1.45585552230601
O          -0.59512474457140   -1.86519765795326   -1.78434056648720
H          -0.82305774384629   -2.61831688196459   -2.33043390531191
O          -1.95265309203764    0.56526068364403    2.06200961584700
H          -2.19135455467949    0.41005931791086    2.97678090741751
H          -1.01290373971695    0.86100649959074    2.06924772882974
O          -0.74833461521133   -1.62961698445062    0.94961206589859
H          -1.36510126657984   -0.94436525249887    1.25935502405995
H          -0.85284810574043   -1.70937110013537   -0.01434727432339
H           0.74055142806294   -1.11243302739331    1.32649758953359
O          -0.30551534992186    0.79439412255718   -2.30715348844331
H           0.56923137764171    0.80347582166208   -1.86652319731613
H          -0.56659940092673   -0.14510458791809   -2.28326920478105
H          -0.93602580010258    1.56536611615539   -1.15240467046771
O           1.95049460250330   -1.83872023121100   -1.16086345941334
H           2.17405743825299   -2.27437967292142   -0.33434531709858
H           0.38768371619540   -1.92639132155418   -1.61900363931315
H           1.95422241752927   -0.87507992499861   -0.94620901601019
N          -1.17762876145665    2.07732176728009   -0.22978592236886
H          -0.36787710258194    1.85510941500870    0.47049827058474
H          -2.02693800341068    1.71012215339002    0.19925482689274
H          -1.24948257240342    3.07821430717383   -0.37747177166092
