    26
        -50.45763560  Gyration_radius:  2.42183519057 Dipole_moment: 7.920
 S           1.71786678224768   -0.67244329130904   -1.03964885439947
O           0.53456729059719   -1.49363251433602   -0.74373797847406
O           2.12509143474998   -0.00320018236506    0.22838713930820
O           2.77535221407655   -1.35821672185092   -1.69239063932865
O           1.22504585106289    0.48309819504103   -1.97956039353362
O          -2.60787704769485    0.16677804423917   -0.43399879319729
H          -3.52607220949441    0.33982680405125   -0.64454343306178
O           1.24595084699738    2.10406534341489    1.55071438262488
H           1.72427716302875    1.43464670320106    1.00875073847830
H           1.76566812283353    2.90751143213563    1.50337294642693
O          -1.30709160107884   -0.84616280213516   -2.47152436290288
H          -2.20351232351168   -0.23502786044904   -1.25377552816914
H          -0.86724295013954   -0.20518747007180   -3.03596436471304
H          -0.58777144502166   -1.22110959687656   -1.90877820982031
O          -0.47028581148294    1.88859831184105   -0.57376008985770
H          -1.27299875383073    1.36699801189818   -0.40027997125813
H          -0.03999080211745    2.06415494693597    0.28060409633210
H           0.58975897696704    1.03786104481270   -1.45626132050832
O          -1.36925889618938   -1.74078791886112    1.06858507193424
H          -1.97840791323351   -1.08323661600878    0.68392835407348
H          -0.75247537256769   -1.94284617869873    0.33497913981829
H          -0.26005137042185   -1.05843316137153    1.86194387553283
N           0.65028090498083   -0.60227758246020    2.22925123329294
H           1.30718269882778   -0.47849091355721    1.36402451316303
H           1.09509972353760   -1.18901084855987    2.92684820520416
H           0.48689446687873    0.33652480134086    2.59283424303415
