    26
        -50.45763560  Gyration_radius:  2.42182623425 Dipole_moment: 7.920
 S           1.34143950830801    0.31214889121315   -1.60843686011630
O          -0.02229158492143    0.17089635447782   -2.37124928092958
O           1.21688709649086    1.56166167177969   -0.80543852187237
O           1.40220402215424   -0.81359499707037   -0.66444785487252
O           2.38741530680306    0.34745693722134   -2.56724148800425
O          -1.65031146070528   -1.89881078206001    0.82951380642697
H          -2.33380082780806   -2.53125377738339    1.05358675983222
O          -0.78834040778172    2.75312609312376    0.42807031853707
H          -1.16420574197958    3.53213716590245    0.01607986556322
H          -0.05983762952491    2.45333916423220   -0.16358126991020
O          -0.41640688656962   -2.53293190105068   -1.39422513958899
H          -1.22457387304714   -2.23222016767543   -0.00987446029806
H          -0.78383800123373   -2.14322649007552   -2.19174427863355
H           0.37634586134514   -1.98207330915167   -1.18737465754222
O          -1.89371182001061    0.45379045232234   -0.57025267023162
H          -0.74706717825605    0.29082065193196   -1.70378118285354
H          -1.88570587599034   -0.30317823987354    0.04085350451326
H          -1.66602014555866    1.24974805103463   -0.05984719975253
O           0.82906553647097   -1.39771534383390    1.84559053133134
H          -0.10599834032136   -1.63220721720754    1.69707570252063
H           1.22266754152450   -1.43417236501888    0.94938844026171
H           1.00957589482659    0.11540471825886    1.90316512381366
N           1.19864244025109    1.16543517477000    1.72045481698729
H           1.32775631888814    1.27487089744903    0.64025885695083
H           2.03317178901704    1.47459414754398    2.20701364726516
H           0.39693844762885    1.74595420913927    1.96644349060160
