    26
        -50.45763562  Gyration_radius:  2.42183036661 Dipole_moment: 7.920
 S           1.75323708641033    0.88143043526952    0.79574669161533
O           2.24148681887629    0.47114220644259   -0.63772710401374
O           0.71703437204501    1.92978986001438    0.57471907679175
O           1.07415955639159   -0.29852006350146    1.35135990245612
O           2.87634774206545    1.33141600108649    1.53788696100003
O          -0.76193688004269   -2.37363804611690   -0.89588496344588
H          -0.99214751795394   -3.19419561213596   -1.33300819035809
O          -1.09690046691134    2.34567351226806   -1.29572120531755
H          -0.92547493194185    3.03799712019693   -1.93538725304063
H          -0.32554203004552    2.34022330882421   -0.68282831899418
O          -1.34002736007004   -1.34611017414190    1.56198414739468
H          -0.39331766602260   -1.15310962636346    1.72300305640318
H          -1.64957361384930    0.13645297938478    1.38379192631693
H          -1.33887925451687   -1.80808314493312    0.70294118005628
O           0.08332423885374   -0.01594948290749   -2.02728431438468
H           1.43253276826672    0.29637132242045   -1.18566938384136
H          -0.35707913507390   -0.81530572304712   -1.69025351810092
H          -0.51449222288486    0.73687440454030   -1.87970857205028
O           1.74268025563655   -2.34106246519598   -0.12417373399734
H           1.59628197162689   -1.62496342272609    0.53950151647078
H           0.19351435585265   -2.46196198647712   -0.61968529603347
H           2.36105002108188   -1.96596689031286   -0.75649213600905
N          -1.63773359195962    1.21240247932158    1.26601333386152
H          -0.59499243729705    1.49556963875505    1.09878899403175
H          -1.99809624731903    1.67280887831241    2.09482217445933
H          -2.14545585121714    1.51071449101970    0.43326502872755
