    26
        -50.45011628  Gyration_radius:  2.45261344297 Dipole_moment: 5.254
 S           1.98275315356906    0.73290024419381   -0.08377881073765
O           1.19579387577762    0.85607002206798    1.12483254608174
O           2.02850315237414   -0.74932013771608   -0.49781309754659
O           1.18443866801966    1.39294185083702   -1.24790076559975
O           3.29371293516445    1.26398283584720   -0.06423697420633
O          -1.60790792994849   -0.95759074011300   -1.71299183428961
H          -2.30115808661627   -1.32757882712761   -2.26102478230381
O          -1.14787737248989    1.86579445612397    1.84662829170010
H          -0.24621968283012    1.51394629940673    1.68733164858755
H          -1.03610517506859    2.78005046777508    2.11237864553740
O          -1.29245909404096    1.59280779919035   -0.81278255497943
H          -1.42806523106398    1.68344145075410    0.15506972831196
H           0.18286244432082    1.52349476017426   -1.03694686013316
H          -1.60263241440131    0.70540591488023   -1.06999658845005
O           0.69371057771994   -0.68671066169270   -3.00203398945877
H           1.32690847363794   -1.30671209851234   -2.62618907560999
H          -0.80194106373465   -0.88836722106854   -2.28686526566034
H           0.96424600278770    0.18398445595311   -2.66953182600729
O           0.00174285425215   -2.01826430877411    0.24208878108310
H          -0.71845341427453   -1.71639017457270   -0.33722328081152
H           1.19977443356778   -1.28057753647095   -0.15211833768044
H          -0.21970794321917   -1.72254160643157    1.16916777192075
N          -0.43244742556926   -1.02970520113036    2.66988537543209
H          -1.24468820556330   -0.42788537646545    2.73724149098226
H           0.37910691130674   -0.42451763930478    2.58830495454187
H          -0.35389040367851   -1.55865900782340    3.52850477929525
