    26
        -50.45011622  Gyration_radius:  2.45258874383 Dipole_moment: 5.255
 S           1.16834020101104    0.05812311272884    1.76288423141581
O           1.77847777722004   -1.02010999591159    0.84877176983455
O          -0.26402151716727   -0.14046088935006    1.82748321789505
O           1.87546662045274    0.10212650941142    2.98724457080873
O           1.43727569807053    1.37407244594716    0.97297295388539
O           0.47209467560030    0.44199864113561   -2.45295919704666
H           0.52304109333393    0.58357029394101   -3.39910412297322
O          -2.45636711346009    1.09371210004534    0.98875861087852
H          -2.75404339937163    1.71132536643062    1.65878199107149
H          -1.70941737660860    0.59700336544551    1.38563281783640
O          -0.47447551098805    2.09473880857055   -0.50688216309324
H           0.62853994207429    1.69181901225643    0.41632283211911
H          -0.31254893901802    1.55508585296313   -1.30212868078152
H          -1.31164084415235    1.77990262416370   -0.10263944857297
O           2.83946544299664    0.55180416075127   -1.26314131396200
H           2.59864178588566    1.05569267662552   -0.46944981504769
H           3.05992193932475   -0.32911196582406   -0.94379661730946
H           1.39896652490513    0.51347029882871   -2.10713366399554
O           0.18077338908016   -1.80962882169160   -0.90893226410119
H          -0.71582507120211   -1.90771942181741   -0.48180935717721
H           0.11776392939103   -1.07971879438917   -1.54821426680993
H           1.09460790194870   -1.37270412133487    0.14415033941768
N          -2.11479945194155   -1.92913181643484    0.42372247108637
H          -2.78119180284202   -1.20786896664656    0.17443411740992
H          -1.65553726172822   -1.62631813024582    1.27748400788152
H          -2.62350863281610   -2.78167234559851    0.61754698933036
