    26
        -50.47249861  Gyration_radius:  2.4084048115 Dipole_moment: 3.030
 S           0.24335015227392    1.03506603726821    0.92809525667484
O          -0.53367118333436   -0.20060270427887    1.03933860467339
O          -0.08357977083007    1.78065976647463   -0.26567749926465
O          -0.12331014454300    1.93548686126406    2.14400459061415
O           1.67234584580001    0.71364432390959    1.00961707029672
O          -2.70486221639897    1.76286492874235   -0.94621247262937
H          -1.77244929388225    1.84571130895968   -0.67337341237542
H          -3.09610662718111    2.62906387325862   -0.82942210306834
O           0.21290559615961   -2.58226268360228    0.08730652087745
H          -0.08335509860304   -1.80192093585534    0.60061572089648
H          -0.51371762154030   -2.76125192303708   -0.51794145207266
O           0.26559144303100    0.31340995497808   -2.50452032733500
H           1.37435922980148   -0.45410667514995   -1.76619644975811
H           0.19626737434664    1.09100084693947   -1.92210946452874
O           0.92745873823364   -0.09279680111607    3.45586009743877
H           1.53301189665266    0.03935776599944    2.70800733554751
H           0.15826782189428    1.39260060667726    2.90751386727129
H           0.28458719421469   -0.74482004965258    3.16041773266192
O          -1.81183322888388   -0.82337639725504   -1.27783953496651
H          -2.48601077290407   -0.14844840460802   -1.42943743669563
H          -0.55039203283509   -0.19788965373067   -2.28789150528990
H          -1.45988320866994   -0.59456240305026   -0.39682067082880
N           1.98080092025440   -0.93445085637932   -1.01120378632987
H           1.43804674231104   -1.76536101302878   -0.65735570370184
H           2.02873232051090   -0.25129163868723   -0.20657571269070
H           2.90344590414530   -1.18572413504000   -1.34819928542406
