    26
        -50.45011628  Gyration_radius:  2.45257671844 Dipole_moment: 5.255
 S           2.09774379846634    0.20742914748316    0.17803041746258
O           1.70749784481237    0.57978887077299   -1.28386353868256
O           1.78310181313613   -1.29833048058519    0.24299275354672
O           3.48651748214168    0.41304254520982    0.35127426818819
O           1.20329193302511    0.91042969923348    1.07298743227708
O          -1.53226625457144   -1.11741855904922   -1.68514022032203
H          -2.20987415438900   -1.49444943285373   -2.24773381979671
O          -0.83832721718019    2.59246035100087    0.88501012480567
H          -0.06052773449838    2.01971735020984    1.05586720260405
H          -0.51328523647549    3.49430413675073    0.88778996476934
O          -0.64653605890290    1.45276365899233   -1.52991334412843
H          -1.15305843585627    0.62161286316500   -1.57984724977615
H          -0.89701857493993    1.90065830130294   -0.69325128335103
H           0.76434207515299    0.99034107407737   -1.36567774236824
O           0.92022804684023   -1.81889729598239   -2.41036022629979
H          -0.66205431514052   -1.42890099919790   -2.04481665412973
H           1.37288933402071   -0.96818386286587   -2.29541183726171
H           1.28588215461709   -2.39189643570395   -1.72876796772188
O          -0.60891956872682   -1.75740159447458    0.82001781723618
H          -0.87608796203579   -1.11775617106461    1.53794675177662
H          -1.11625964100867   -1.52598101778334    0.02346182031756
H           0.79492980270318   -1.48237919331515    0.52260492279485
N          -1.10984728416830    0.08117389072699    2.67172556403963
H          -1.31756963686038   -0.12059989641753    3.64093585944798
H          -1.71767557571175    0.83061704124095    2.36291273393715
H          -0.15711662445028    0.42785598912525    2.61122623063645
