    26
        -50.45011628  Gyration_radius:  2.45258482829 Dipole_moment: 5.255
 S           1.99888932500929    0.34957966263129   -0.59814967139936
O           1.94691676260296    0.51522713926235    0.93167395943497
O           1.13711061228015    1.54473448342167   -1.10515010391407
O           3.32863363533673    0.51475049785625   -1.05151394642895
O           1.31950194237444   -0.87674913062651   -0.95839562333131
O          -1.78196554230277    1.40795761116235    1.13073151268881
H          -2.53272672327497    1.83450147580683    1.54575216276910
O          -0.91190813874572   -1.59193544845639   -2.20012654005063
H          -0.73965812208719   -1.69411891615871   -3.13760827539999
H          -0.04221105111734   -1.42693047019909   -1.77751435474298
O           0.41601923642635    2.89006879827244    1.19979961731028
H           0.74970644860553    2.72731297001510    0.30313765562481
H          -1.02337717952223    2.04312634352425    1.19988798271282
H           1.05068742806871    2.46411957858449    1.78492705819763
O          -1.28515768856450    0.96777820399472   -1.51012447756743
H          -1.65309604210289    1.05107861363338   -0.61148725607626
H           0.16259431939285    1.28522281269794   -1.32354895479692
H          -1.33722610310405    0.02089189983870   -1.76321561032801
O          -0.06497598770823   -0.57183726784089    1.94948632336975
H          -0.81648372015273   -0.00510042552422    1.70556248235963
H          -0.19710995381330   -1.45094572425589    1.49599292581112
H           1.12731361630784    0.02614300732167    1.35310488119743
N          -0.25671599039718   -2.82805146750624    0.55920274637960
H          -1.03392472742265   -2.85388382331606   -0.09020170017453
H          -0.13195279334625   -3.75432631798225    0.94604694419108
H           0.57111642725676   -2.58861410616578    0.02173024216028
