    26
        -50.45300981  Gyration_radius:  2.43486775007 Dipole_moment: 5.195
 S           1.92275721548741   -0.24993907814781    0.79325915595941
O           1.97136830199864    0.68573971199623   -0.32025741093673
O           0.69990065295627    0.12554709449001    1.66062834267803
O           1.58251874205358   -1.63749439854753    0.22578847285529
O           3.08648198403043   -0.31681519903938    1.59426296842589
O          -1.22877916285077   -0.22810286515972   -1.95965916626462
H          -1.72833961653894   -0.00956761486883   -2.74719591445597
O           0.82362053303772    3.09417357561618   -0.51508065750400
H           1.28923172680422    3.71142144306083    0.05102812463489
H           1.37999723946030    2.29244793978518   -0.56344942593362
O          -1.03248807253346    1.33883774250988    0.25456636166164
H          -1.17423386849567    0.82044808081588   -0.56292775414903
H          -0.00924206663775    0.60456474331674    1.09537444132776
H          -0.51742801979506    2.12674473096962   -0.02468695849181
O           1.30053809499952   -0.66607210671530   -2.48611844644960
H           1.66511055747668   -0.08758313437038   -1.78357982199008
H           1.55445459870484   -1.55803932740100   -2.23478860000480
H          -0.28727324660614   -0.36804168579385   -2.25140160289631
O          -0.88348532219183   -2.04629133824414    0.06565574373394
H           0.55825374495760   -1.82675480341951    0.18352488110066
H          -1.34031488633186   -1.66517799401188    0.86594475075058
H          -1.18304260895411   -1.51837748582866   -0.69293636016501
N          -2.04934570401718   -0.82683694791525    2.14042450730740
H          -2.27911035870765    0.08925370617848    1.77265293521568
H          -1.27535302895552   -0.70642805599584    2.78263471439034
H          -2.84579741934804   -1.17765674328080    2.65633671920030
