    26
        -50.45300986  Gyration_radius:  2.43484865464 Dipole_moment: 5.196
 S           2.01089345410160    0.46539021724314    0.35905438233514
O           1.48389739038697    1.34158667424595   -0.67651471588515
O           2.06687607056081   -0.95937610779149   -0.21530542014789
O           3.26754308865758    0.83050640360423    0.89549182207931
O           0.95352416924148    0.38945949076536    1.48383506320450
O          -1.46363148244699   -0.67845889001149   -1.67293597371716
H          -2.16662475969855   -0.66452106622789   -2.32342111416259
O          -0.45083980259216    3.17706544757568   -0.46936795465273
H           0.32727124272826    2.62687837501835   -0.68500308241176
H          -0.12110402333006    3.92710984549770    0.02762207194265
O          -1.35637513144528    0.88406489787356    0.55071152688833
H           0.01645453324124    0.57535183501445    1.11091082166663
H          -1.22508575545406    1.80041700319454    0.22337866165941
H          -1.48037004867141    0.33870006294205   -0.25192643313716
O           0.87937172525842   -0.19000617085777   -2.73994941255246
H           1.47901750374008   -0.92860959840813   -2.60519787760930
H          -0.62066051483054   -0.47617838214308   -2.16239191474631
H           1.15998952785869    0.49010465437630   -2.09203655182456
O          -0.06924633104539   -2.22552737760667    0.11259055617227
H          -0.69220887495673   -1.84952015667247   -0.53122036945420
H           1.19174025586501   -1.50323344265181   -0.05655177342679
H          -0.44589618455707   -2.02292686360080    1.01340285393180
N          -1.11107524179077   -1.47720524644515    2.45906929684521
H          -0.30978210602042   -1.07949631019022    2.93418627342284
H          -1.60153930870367   -2.08279977237211    3.10421220641954
H          -1.72213939609468   -0.70877552237175    2.20735704716054
