    26
        -50.46954171  Gyration_radius:  2.39869462745 Dipole_moment: 4.983
 S           1.25262675986536    0.35584023454319    0.91491967022111
O           1.69476189114990    0.90660051007562    2.16627605109455
O           2.48537966634644   -0.01844163904915    0.03424000376279
O           0.51427025867757   -0.90979746936131    1.10916174856454
O           0.43684126906187    1.29679044642245    0.14392503757929
O          -0.48710684599158   -1.15342907301873   -2.52339740003024
H          -0.70228710221714   -1.67330453228264   -3.29881730695578
O          -1.91513441904909    0.59177598695390   -0.86071170220567
H          -1.64234228103878   -0.08063907766591   -1.50451845735278
H          -1.07183914448214    1.00634718075778   -0.57988933962138
O           1.07897327785283   -2.50640594641194   -0.88858729404724
H           0.04398437596729   -1.74116007941535   -1.92755460401609
H           2.01779856884223   -2.36300050959497   -1.02971970800631
H           0.86482114324016   -2.01060830023986   -0.06586806683271
O           1.48224615913920    0.75989744561326   -2.22966062415811
H           1.01274430904364    1.35118528488922   -1.61981810726880
H           2.24582806733076    0.23607366253362   -0.89977523491558
H           0.81137317725290    0.11416537561660   -2.51890682861820
O          -0.64510586414693    2.00835897963353    2.68361227882333
H          -1.58144769521307    0.77484376140200    2.16560444135945
H           0.26556665022934    1.63250747790018    2.66111195095579
H          -0.63657755114670    2.68759292930727    2.00373766960123
N          -1.86649022871567   -0.11308419380752    1.66645920851449
H          -2.16942883781138    0.12439440491783    0.68043078200216
H          -2.54953793836282   -0.65390306234671    2.18429220749557
H          -0.93991767583761   -0.62259980742378    1.53345363407131
