    26
        -50.46954162  Gyration_radius:  2.39860178835 Dipole_moment: 4.986
 S           0.47478031370367   -1.30641070130874   -0.77498085819652
O          -0.45494532491519   -1.36422464972385   -2.02689090712683
O          -0.43145119472643   -1.40932258876703    0.38811946532810
O           1.41256583703794   -2.39444651524561   -0.81156751232534
O           1.13248449804494    0.00229829376296   -0.78159743798280
O          -2.00306327866546    1.96506493956875   -0.24491984777722
H          -2.75347414538877    2.55917982481319   -0.20294446338800
O           0.50985714074843    1.87561656946570    0.99104609075592
H          -0.40919783403462    2.06096963602446    0.74226644119760
H           0.84345765531179    1.31160685886303    0.26146455208045
O          -2.79723275534135   -0.54846087024314   -0.33395324129627
H          -2.90113181752757   -0.90059220845489   -1.22115268512307
H          -1.96982140638872   -0.95666804503605    0.00855300065106
H          -2.36919222658473    1.04457587526574   -0.20984262966971
O           3.03570986912258   -1.25433143080751    0.92686022738357
H           2.52688180156465   -1.82697796101969    0.30697898102405
H           3.34719600443726   -0.53038006176726    0.37684830062329
H           1.89261522046677   -0.67341763949074    1.93777428401582
O          -0.53886845550578    1.19427120823315   -2.45533617557082
H          -1.11255095245037    1.61006566752353   -1.78546642532805
H           0.32943194464347    1.11873699656746   -2.02838277758740
H          -0.58032297799255   -0.42004450779610   -2.32255768750164
N           0.94529716166793   -0.36228892738077    2.29100536586330
H           0.26786523764148   -0.89080810007722    1.66038490391138
H           0.79413441799314    0.65272209096514    2.03199041839474
H           0.80897527711166   -0.55673375391215    3.27630063762432
