    26
        -50.46954167  Gyration_radius:  2.39869635713 Dipole_moment: 4.988
 S           1.17340974322264    0.70801981561898    0.80946823363194
O           0.41591962493459    1.27465702614216   -0.30873958855036
O           0.42985603850468   -0.42513789671868    1.39930966283829
O           2.47485927850199    0.08222819687430    0.21795059967994
O           1.51083482302867    1.69156506242619    1.80117755723002
O          -0.27627736120599   -2.00806868406742   -1.95559583925253
H          -0.42962857750155   -2.78237124790106   -2.49852668259044
O          -1.84363129733836    0.17083379941962   -1.15405771362293
H          -1.02859329834257    0.68900724544099   -0.98390650498123
H          -1.51506561996581   -0.67950603683507   -1.48584904285076
O          -0.87040212399592    2.82217503005792    1.71127835727124
H          -0.81220495128579    3.20968284174854    0.83372624283968
H          -1.75470473755640    1.45274702789814    1.61234192972801
H           0.04163335257008    2.49589160762586    1.89250317211824
O           1.65157411251115   -0.05129848582641   -2.24021778129714
H           1.01049482634089   -0.78137723005697   -2.32181837374233
H           1.13070523788533    0.70396736365551   -1.92364498660010
H           2.30953240089866   -0.02841825628683   -0.75925842945595
O           1.16211063562942   -2.61821413472478    0.16910811577347
H           0.87987523234514   -1.86489302669660    0.73606393328048
H           0.20939928952027   -2.31967012087919   -1.14963508864830
H           2.10840831409657   -2.50356623434617    0.05376025309736
N          -1.99307514180132    0.43473224158543    1.45253166171417
H          -1.05552236273927   -0.05526298265097    1.58232066380975
H          -2.21735540033499    0.28684569950657    0.42868635711165
H          -2.71215202791482    0.09543136898252    2.08102329145810
