    26
        -50.46954178  Gyration_radius:  2.3986110786 Dipole_moment: 4.983
 S           0.06810379671401    1.53753845523606   -0.40516894852356
O          -0.67161670824533    2.75700999888506   -0.57935530031211
O          -0.05533879038825    0.99421187323301    0.94940452583479
O          -0.32848335635326    0.51527991819533   -1.39637285958338
O           1.58517566709472    1.79515605447042   -0.66479639299659
O           1.76135674143808   -2.18753224796398    0.21049274036928
H           2.28951050293967   -2.98443829874222    0.14851187647942
O          -0.70491754781541   -1.54323040087056    1.37240041941161
H          -0.44208475236121   -0.59874296487592    1.39566157810055
H           0.06851990420095   -1.99221772331610    0.99663188213826
O           2.47659858076286    0.27311524872685    1.23928560370099
H           2.07764214912175    1.26142801879894    0.01867977766927
H           1.61526966194995    0.52591674350764    1.60829617637361
H           2.37253632971525   -0.65979608489085    0.97555694757312
O           1.80284643030829   -0.85271405602759   -2.06375144510557
H           2.48902389462096   -0.18331715105851   -2.11845523141265
H           1.76765401707307   -1.77361014967368   -0.69016485583770
H           0.96581916709721   -0.35167727341179   -1.93376296224176
O          -2.76495306355165    1.85616481261962    0.74842355641362
H          -2.09224780848118    2.32336316112658    0.20045585684168
H          -2.76634936827435    0.33940085299715    0.14304073453579
H          -2.37677844957183    1.83071072001335    1.62721810249348
N          -2.42237055370668   -0.53751354145473   -0.33807895187756
H          -1.63385908920205   -0.17803000422093   -0.95856639339409
H          -3.15180531057638   -1.01511031811763   -0.85483141923505
H          -1.92925204451875   -1.15136564319586    0.36924501258560
