    26
        -50.46954182  Gyration_radius:  2.39857826128 Dipole_moment: 4.982
 S          -0.25696845299891    1.44045472353270   -0.62391162454021
O           0.71684970720320    1.09872289222232    0.41540333358096
O           0.22705812691860    2.45297540378723   -1.52123529181815
O          -0.66658049531884    0.22088786597172   -1.35163603265095
O          -1.54708500954890    1.94211832273688    0.09659728904199
O          -1.26022875173607   -1.74794324839768    1.81249721893780
H          -1.72744518669409   -2.42760274797948    2.30000499766672
O           1.37625164487996   -1.42040765269528    0.92227244047539
H           0.53170998125706   -1.76447845363911    1.25283416674231
H           1.23571275485829   -0.45077959727364    0.87832678220347
O           2.63177376388127    1.38152614677582   -1.67878584618937
H           1.78503037517961    1.87925403986820   -1.75915001812387
H           2.93069330547805    1.56753070244294   -0.78452810036873
H           2.16555046428198   -0.18177086306038   -1.75164062390367
O          -2.75465772467205   -0.79569387447764   -0.14083592701208
H          -3.27257520167755   -0.02278514875762    0.09642207194401
H          -2.02447120450476   -0.45179734790713   -0.70391924365145
H          -1.84937427529621   -1.48410195719987    1.06031702331158
O          -1.00141249689371    0.93178441134591    2.42406475090390
H          -1.47831004531145    1.62484800252301    1.03965641225741
H          -1.13908548457743   -0.03298907489283    2.39075103690884
H          -0.10402262473411    1.06774213584745    2.08038815155458
N           1.55234878903182   -1.03954753781445   -1.66824577890698
H           0.56687608690534   -0.63487195427155   -1.70185545035060
H           1.63288964654466   -1.43054055160125   -0.68800211384953
H           1.72947230758141   -1.72253465698414   -2.39578963413309
