    26
        -50.46954180  Gyration_radius:  2.39864245789 Dipole_moment: 4.981
 S           1.22744217852787    0.59947740156601    0.81525086960995
O           0.46514558142553    1.27319148864243   -0.23851970563046
O           0.44893140497985   -0.53608612291779    1.35304314387832
O           2.48034809094006   -0.04307906928522    0.14271352909753
O           1.63906093339488    1.49810499006265    1.85815542918934
O          -0.42523940789788   -1.86029762184605   -2.07065781224335
H          -0.62729964025243   -2.58861021573658   -2.65937391139837
O          -1.86652848140558    0.32922849681857   -1.08171998620913
H          -1.02359108130391    0.79808840162803   -0.90434514816364
H          -1.58777834696482   -0.51153249492656   -1.47710463594808
O          -0.68777445528740    2.73862707186772    1.91903206492068
H          -0.63681878315285    3.18106453193991    1.06735764658729
H          -1.63786822737882    1.41990707081333    1.75853222890154
H           0.21272051529252    2.36020188923811    2.04927359173653
O           1.58071906814004    0.02432133654547   -2.29064379640387
H           2.28158326832025   -0.08102404699253   -0.83391343856552
H           0.90422256972037   -0.66964021895048   -2.39774832136020
H           1.10522192524752    0.77984500206613   -1.90976005424242
O           1.04480721587156   -2.67392258019636   -0.03778123397188
H           0.81378307501374   -1.94790739590004    0.58519135225140
H           0.06872953573373   -2.24629815299923   -1.30286847521888
H           1.99162756679333   -2.59352556398905   -0.17553605788226
N          -1.92813194429605    0.42660243975382    1.54004863053327
H          -1.01096105756622   -0.11238148027414    1.60714547813472
H          -2.18881554076316    0.35746084978935    0.51654047613913
H          -2.64353596292618    0.07818397331147    2.16768813632920
