    26
        -50.46147053  Gyration_radius:  2.59168320536 Dipole_moment: 4.224
 S          -0.37658337254655    0.61428831102226    0.19470204601041
O           1.17603109497536    0.85433789315216    0.27325289677002
O          -0.82492455225241    0.78177770180539    1.58796344368553
O          -0.95139318896521    1.57652354439507   -0.71420799648755
O          -0.55425400636716   -0.76974874023481   -0.22169979365455
O           1.26064039538525    0.63177089200715   -3.73055295865442
H           1.15136354742250    0.92024775548199   -4.63789167964341
H           0.39035624406401    0.25483430193446   -3.45470521866286
O          -1.11032132097129   -0.12532334189318   -2.77865087161344
H          -1.29418207389579    0.66898904844907   -2.24974486169947
H          -0.93343354762333   -0.78623226793185   -2.09359129387046
O          -2.24372689537718   -1.32369559447581    2.50785861164877
H          -3.05534134637906   -1.42229574994631    2.00790734774403
H          -1.84123202812942   -0.48547220101673    2.20446013423647
O          -0.02226064986153   -2.55307579948159    1.62732895196017
H          -0.88345253077599   -2.44412920269539    2.08042663833328
H          -0.16225529262801   -2.06545032962540    0.78129001716091
H           0.77638570905514   -1.48653905168630    2.29901771400006
O           1.40055473941515    2.39838338586788   -1.72844340363910
H           0.44655855890876    2.52797925314519   -1.61536450578963
H           1.40711931536115    1.46561806498970   -0.50040227514034
H           1.49727745366941    1.79579190051905   -2.50272844527195
N           1.14028416725576   -0.50069121792442    2.63001899103486
H           1.93784088718967   -0.21298905271597    2.06501914488792
H           1.34157470164358   -0.46067070312372    3.62393208254992
H           0.32737398142641    0.14577119998163    2.34480528410698
