    26
        -50.46954181  Gyration_radius:  2.39879992423 Dipole_moment: 4.981
 S          -1.21630070285943    0.22077170538009   -1.00322550725660
O          -0.44292986030473   -1.01008428612395   -0.82395469351430
O          -1.61022598357326    0.43045709905100   -2.36903666287905
O          -2.48172356363555    0.10932575817598   -0.09682071351179
O          -0.45831675624392    1.37389646202775   -0.47344867140615
O           0.39048390124539   -0.37286967227823    2.76427021111237
H           0.57372628653791   -0.35142210279883    3.70443514291241
O           1.87065047060607   -1.01895263817974    0.47481503442144
H           1.03622523761067   -1.19536785924433   -0.00938326556342
H           1.57711706903701   -0.78050445885015    1.36810599036021
O          -1.58233295665483   -1.77878994131321    1.44026974982108
H          -1.09364684193037   -1.97245062826861    0.62443210377399
H          -0.91772848006303   -1.40448375808361    2.04773089473136
H          -2.28395980062438   -0.60759933287501    0.56755540851344
O           0.73988625452995   -0.29755641311148   -3.31967866942761
H          -0.16750554303738    0.03573215908826   -3.12834274287204
H           1.66539886921645    0.44226651311896   -2.19543801690676
H           0.69653528182374   -1.23429263646641   -3.10920004401223
O          -1.09101238370605    1.68820625774436    2.04835501052906
H          -0.10852928568953    0.45755507575884    2.55461841513365
H          -0.84740160969192    1.69634379718121    1.09485708880910
H          -2.03642023737778    1.52136418564167    2.06358521712918
N           1.93684639519192    0.92024148158215   -1.29187171835574
H           2.64659381063071    1.63217053433373   -1.42070395260290
H           2.19463764857528    0.18632194615241   -0.57395783036803
H           1.00993274035003    1.30972078234567   -0.93796776857231
