    26
        -50.45300970  Gyration_radius:  2.43481517384 Dipole_moment: 5.197
 S           0.85436337700099    1.60300164528230    1.04336758266523
O           0.77120019948477    1.93004245461045   -0.37226212565488
O           1.64456516000179    2.47153433764226    1.83173020639579
O          -0.57906850852384    1.53481718335871    1.59433080629178
O           1.38246799883870    0.15464194385343    1.15390416627019
O          -1.78970276509267   -0.56034473960198   -1.37268066184292
H          -2.29287151582969   -0.81041953075184   -2.14843841920112
O           2.01714490525561    0.75183552172057   -2.42530716436198
H           2.94620452359666    0.98583179932223   -2.40583371366193
H           1.57140176945824    1.34421151744188   -1.78885849755697
O           0.83493144240736   -1.13986922391706   -0.96129774971020
H          -0.11052396604270   -0.99541111807490   -1.16748554185093
H           1.32825999131421   -0.61328615068864   -1.62716215206877
H           1.15267557309838   -0.37754386738476    0.30777742473967
O          -1.79434375057071    2.03122597302965   -0.98526285114293
H          -0.82679299768038    2.12961064425087   -0.86152153602879
H          -1.83976613384797    0.43198271966083   -1.30998355833833
H          -2.18067900009376    2.25062466807620   -0.13328662415197
O          -1.60729170067455   -0.73701781535540    1.35909467760808
H          -0.92312860191686   -1.43688729854136    1.55032484938118
H          -1.00339894806443    0.58493270620565    1.52683765453811
H          -1.82626418263906   -0.82365369428362    0.41655428309185
N           0.33219504389775   -2.54725118455258    1.69332936721464
H           0.22879131708697   -3.43893479260211    2.16004555481581
H           1.04630768334220   -2.01205893010081    2.17249275178898
H           0.66332308619302   -2.71161477859995    0.74959126076799
