    26
        -50.46954175  Gyration_radius:  2.39866344624 Dipole_moment: 4.978
 S          -0.86796742471794   -1.33314096614659    0.02084025877843
O          -0.17661876849418   -2.25180225892474   -1.03418008624414
O          -1.20817286250185   -0.07736729009296   -0.65201210950392
O          -2.02031680652361   -1.99599503972988    0.56616416657202
O           0.15834371280169   -1.08841264956095    1.05607235106345
O           2.33105135329350    0.95733786170017   -1.25857695259439
H           3.19228132323477    1.26230632926302   -1.54694731440366
O           0.08169619106624    2.17764711033675   -0.11592005176931
H          -0.47700400977934    1.44076975644572   -0.44269543036489
H           0.96989066881028    1.95885910520101   -0.43843437595507
O           2.51823663883643   -1.37584362964209   -0.04303049906050
H           2.40381406915254   -2.13437128375651   -0.62046345070969
H           2.48249367739059    0.11629660020947   -0.75643045736997
H           1.68267019908354   -1.31899526875313    0.47377314386986
O           0.41031881383220   -0.37477825113416   -2.72748192974460
H           1.15811282435222    0.14415645308175   -2.37765929206605
H           0.10936005825944   -1.65257273305702   -1.77848351561779
H          -0.37703388786273    0.00967103718944   -2.31017249913575
O          -3.06117326493975    0.24444153890768    1.49050558753950
H          -3.28753458369804    0.65436664010418    0.65126850978818
H          -2.79361597417219   -0.67227484714649    1.24741580175838
H          -1.67591368956063    0.91655292089959    2.03527799692627
N          -0.64046362680430    1.09155749459938    2.16140577960584
H          -0.20352579903564    0.15937179910906    1.88538762935707
H          -0.40187128705635    1.38192995519433    3.10262570738651
H          -0.30705751496589    1.76028963570582    1.41175102187202
