    26
        -50.46954179  Gyration_radius:  2.39864787041 Dipole_moment: 4.979
 S           1.44056381325115    0.46341242311451    0.49070118077332
O           2.17767288247674    1.28183752455644    1.41351627514826
O           0.50186322182163    1.23987240245596   -0.32253963389127
O           2.42353791007304   -0.24913505557423   -0.48947968520492
O           0.72380104960259   -0.62709657659087    1.18479800782093
O          -1.09329384324255   -1.73150396466527   -1.93287350932721
H          -1.49903068439307   -2.41547815179282   -2.46706855502141
O          -2.04099075132616    0.52429021675309   -0.56793277719696
H          -1.94598137968608   -0.31906437485171   -1.03756853834821
H          -1.14225659788812    0.91553950810575   -0.60000848052602
O           0.05968080006725    2.70273389590080    2.08476865764834
H          -1.01278567846356    1.47283003115606    2.14324096346823
H           0.92694213753636    2.24767767547089    1.97560043843761
H          -0.06492845885452    3.17450837698509    1.25680022191164
O           0.95328044148947   -0.00802492455871   -2.61471088426015
H           1.98412586746124   -0.23005842129967   -1.38464999134347
H           0.21258422966981   -0.63992368008401   -2.56127458048433
H           0.65727929461475    0.76690054374258   -2.11095063515912
O           0.76053303449647   -2.74578918017789   -0.35451251134506
H           0.75798196003906   -2.03022419124630    0.32108275904437
H          -0.45939056516477   -2.18805469513547   -1.32281916706007
H           1.64631636513760   -2.73674770014740   -0.72499410794255
N          -1.43579282813366    0.51624001708282    1.98569322730728
H          -1.99982530044165    0.20173082682051    2.76678893027795
H          -0.58282616937626   -0.09781946347198    1.80830832779187
H          -1.94906073080985    0.51134694749016    1.06008406745929
