    26
        -50.46160215  Gyration_radius:  2.61713120411 Dipole_moment: 3.621
 S           0.00988909951987   -0.09540169516600   -0.69179309888676
O          -0.76745733186008    0.57297944657322   -1.71704245169402
O          -0.90226012443643   -0.84755356346754    0.19648207796961
O           0.94024801773946   -1.13353388818729   -1.36543026008403
O           0.83123255556904    0.82960303354654    0.07787606471975
O           2.20412800443853   -2.67228182562590    1.98299056676628
H           2.73070071720837   -3.46238826879208    2.11310480359387
O          -0.94003334757588    3.20186881221146   -1.82243626495465
H          -0.86983679159427    2.22202442731973   -1.88803067449073
H          -0.21964109000042    3.55033578674600   -2.34924870122217
O          -0.80301105488155    2.76634955605893    0.80328683984607
H          -0.82992344171908    3.22785911815301   -0.06253929799399
H          -1.95733286254550    1.84478273378890    0.62920263440664
H          -0.07105589348610    2.11559278144250    0.69640700094227
O           2.92119715206702   -0.83729313952659    0.17763725195178
H           2.47913522311834   -0.01359740708864    0.43727776832489
H           2.76648393272713   -1.47435214135427    0.91387311209087
H           1.81321420040345   -1.09810596880977   -0.83706512734538
O           0.13935563950780   -3.29066403487719    0.38856071424840
H          -0.34801743543601   -2.44241980515681    0.40804790803456
H           0.49315100837564   -3.34689740817271   -0.50329827435278
H           1.39090335375160   -2.95552469533277    1.50537846208637
N          -2.64056661530933    1.03707851825214    0.31779862824807
H          -2.02229377247544    0.15427275007938    0.34285767052207
H          -2.88396126061821    1.19183667157064   -0.65920423969825
H          -3.46424786247216    0.95543020579526    0.90530689699060
