    26
        -50.46160236  Gyration_radius:  2.61717686548 Dipole_moment: 3.627
 S          -0.21079260499194   -0.46244914199497    0.47871273511326
O           0.73590532262619   -0.99109271022889    1.58371635446171
O          -1.51099241784212   -1.08413050904289    0.63752845868015
O          -0.34110888167309    0.99599378998173    0.68565570522736
O           0.38885063481815   -0.74692226169754   -0.81825585243958
O           3.66384573951820    1.42052251411603    0.70617511129076
H           4.47106947350190    1.57794393909429    1.19819285460915
O          -2.75778897230599   -2.21446140538694   -1.39210536178980
H          -2.32674854887708   -1.87232390398857   -0.57566397843099
H          -2.49465099196699   -3.13320712650087   -1.46001719583352
O           1.59375711172629    1.64966299874142    2.39437188914400
H           0.84952804497914    1.55233191732026    1.76660920402285
H           1.57931602861103    0.84192307808677    2.91504324565280
H           2.92046898346254    1.63640512850449    1.31483514413638
O           2.84428611558156   -1.07019133991677    0.19079512620250
H           1.64710121287994   -1.09396429283994    1.13433221792687
H           2.23790247108706   -1.00474723903598   -0.56385527574905
H           3.24900282732305   -0.17726028112421    0.29402087939220
O          -1.48934204665223   -0.19626504943383   -2.58417336436099
H          -2.14867113563963    0.69481932529339   -1.59194865973759
H          -0.65456683581916   -0.37923253943802   -2.09402255156926
H          -2.01999044054567   -1.01088883705721   -2.44927483348892
N          -2.51053163646688    1.18491190000092   -0.67288603015405
H          -3.13868799293307    0.53776387177100   -0.19923434842636
H          -2.94909160614367    2.08484591953043   -0.84043365173959
H          -1.62806987426625    1.26001224525681   -0.05811782213414
