    26
        -50.46160187  Gyration_radius:  2.61744326155 Dipole_moment: 3.622
 S           0.42285793445097   -0.13038884820264    0.53991858111489
O          -0.90699317689122    0.49482661305002    0.70514489136882
O           0.49962783701895   -1.31417581746330    1.37348555884077
O           0.68529557867483   -0.41830522291883   -0.86393094827831
O           1.46906969666502    0.89851133906344    1.03361669661113
O           0.26919049756981    3.75546307813042   -1.32809838705416
H           0.53127205009456    4.67731168110329   -1.32566441260878
O           0.67075461180376   -3.72952952985177    0.33090561755755
H           1.59128074020156   -3.95323854846202    0.18788977626924
H           0.67537700052925   -2.86005418476027    0.79287084081381
O          -0.86068628657630   -2.47113682935628   -1.45072195757702
H          -1.74958246495172   -2.11407363696438   -0.31321280346211
H          -0.28042185091425   -1.67494602937291   -1.44622546534693
H          -0.31110008659268   -3.16005955245085   -1.01863376510236
O           2.10699133040055    1.81773764363214   -1.23375471203185
H           1.67811709510373    1.01790816714316   -1.57675226479223
H           1.47539290127199    2.55737485733007   -1.39439247435484
H           1.83432156616172    1.33979891777138    0.18845627129557
O          -0.43345906315717    3.07403643260497    1.16800857366654
H          -0.74937557777575    2.16168867470356    1.00918653509544
H           0.38474087122168    2.96526443068060    1.66041156467073
H          -0.10318443729092    3.56984047317976   -0.43560949164699
N          -2.17307958845248   -1.73688969790610    0.63270850189397
H          -3.18727328384944   -1.76667044859996    0.66167242634409
H          -1.78411972382889   -0.73422237411114    0.70654567216826
H          -1.75501416080758   -2.26607157801730    1.39617518454270
