    26
        -50.46160203  Gyration_radius:  2.6174556049 Dipole_moment: 3.622
 S          -0.50900386374512    0.33153772041026    0.34248596878542
O          -1.79718377336183    0.81670072792807   -0.36602094286156
O          -0.47222250816908   -1.14059268566549    0.20764382518769
O           0.63854963133516    0.93780810619411   -0.31932827362540
O          -0.58731228321906    0.67930857708378    1.74781193427374
O          -0.96689719412000   -0.87604717990663   -3.77400454314376
H          -1.53336067065307   -0.97252705692938   -4.54101236608760
O           1.39082989627495    1.91425701381011    2.97778358793306
H           0.58689649909855    1.51389536661876    2.57408652946723
H           1.28211902821769    2.86212370813578    2.88934176851248
O          -0.72385742317085    1.48911071367180   -2.55422324224884
H           0.10572932820427    1.45330380420118   -2.05226767045508
H          -0.74441195615827    0.67341806910496   -3.10745688412988
H          -1.49340283020128    1.14769095788065   -1.28295398223982
O           2.69964137394447    0.38757765079034    1.22906666370790
H           2.08173469544719    0.62446676559576    0.49924872609799
H           2.51204325532146    1.06050176543917    1.91865759142178
H           1.95225811972111   -0.76536916352132    1.79839927970467
O          -2.31331976171482   -1.73782791808758   -1.62137922465634
H          -1.61163119832521   -1.66278134201119   -0.94358334468366
H          -2.94063056074253   -1.04444847256711   -1.39889004813374
H          -1.43338434503951   -1.31586380233806   -3.02664105050437
N           1.17581600547640   -1.46586352846330    2.14858167969575
H           0.46792888160520   -1.49103872977792    1.33583290578667
H           0.69641525982748   -1.03392395927274    2.93679707107441
H           1.53665641420514   -2.38541712829086    2.38202403114053
