    26
        -50.46160227  Gyration_radius:  2.61707689108 Dipole_moment: 3.627
 S           0.60212629979763    0.35434451244920   -0.00058849111391
O          -0.51713350984974    0.51476649153414   -0.91934670504079
O           0.31161262950821   -0.69594211392981    0.99912887796256
O           1.83500651146004   -0.12108853458612   -0.80733064220368
O           0.93705347144973    1.58638632720788    0.68659846078597
O           0.25380679134321   -3.51360748562480   -1.87662986993172
H           0.67749066101918   -4.25763547274674   -2.30728604768342
O          -0.62342775084828    3.70746070543157    0.55623031960009
H          -0.37760362115269    4.24183393057997   -0.20000655907097
H           0.04031525691714    2.98139400596496    0.59785421067329
O          -2.39690713544926    1.71963925708743    0.48186132232873
H          -2.00791975016419    2.62024054556030    0.45024587443638
H          -1.86018363350086    1.21180751441114   -0.16967599934508
H          -1.76778836106353    1.22337384060704    1.73514482648585
O           0.58123242567540   -1.02963108749438   -2.80616317378280
H          -0.16194419236383   -0.51094621079158   -2.45959686785639
H           1.45975351490573   -0.50060093227679   -1.67777704195492
H           0.38871457074194   -1.96893915129302   -2.57744047650698
O           1.73801229930120   -2.81410546098566    0.24367935881756
H           0.74486253228854   -3.36187127019008   -1.03666219829333
H           2.49653003638252   -2.33691792500685   -0.10381520150824
H           1.16637090580030   -2.12075135629784    0.63090056766320
N          -1.06926158572803    0.85704218356514    2.50577596558825
H          -0.49962341296467    0.09741943940979    1.99518824198528
H          -1.53290840685138    0.50625043521321    3.33779815057597
H          -0.41818653672162    1.61007779218650    2.72191312739021
