    26
        -50.46160218  Gyration_radius:  2.61723463014 Dipole_moment: 3.621
 S          -0.49767374096893   -0.48955219417722   -0.00992809675724
O           0.90344181718045   -0.77946034597489   -0.38368602904584
O          -0.65386169463349    0.91250967035852    0.35396979940263
O          -1.37180607572161   -0.88164304274455   -1.09817422637650
O          -0.82178386283057   -1.35732442002797    1.23057664369302
O           2.15027779263186   -0.01701935216608    3.36375830450387
H           2.47064664317400   -0.34198037289797    4.20651007597301
O          -2.73853029265284    0.90062979503499   -2.47944670661796
H          -3.58154629991829    1.05985791584355   -2.05280948158073
H          -2.31355069129334    0.17376518164759   -1.96912425494166
O           1.93805402841967   -2.09733919259721    1.68587962726547
H           1.69047959737412   -1.62677059990730    0.86445881837475
H           2.20508142610204   -0.77286788629270    2.73502620673626
H           1.14294622097640   -2.57238580914594    1.94255536253014
O          -0.50191788759457    2.23740957039197   -1.91988832108449
H           0.23666715899022    1.09670836009190   -2.52459964401135
H          -1.40815857178071    2.03196588926733   -2.23607206175508
H          -0.50929803315751    1.93450515801996   -0.98245236502759
O          -0.45551485275409    0.43288577048389    2.97811195000298
H          -0.51758301261365    1.04686083758933    2.22941858355945
H          -0.73084362987816   -0.73023271734860    2.03117669266253
H           0.50203178505069    0.37400954033733    3.20482125137089
N           0.64434363457565    0.10430056746964   -2.77947908970410
H           0.89865345580278   -0.32193397524119   -1.82242471656599
H           1.43578248497471    0.14324263524114   -3.41384801575873
H          -0.11633741944080   -0.46014098324382   -3.15433030684275
