    26
        -50.46160198  Gyration_radius:  2.61754398103 Dipole_moment: 3.624
 S           0.39854085290695    0.56790132178320    0.08160383316347
O          -0.39719285589241   -0.09633272795792    1.10548797829529
O           0.04143747552967    1.96370802186668   -0.08073611167104
O           1.89084552002885    0.47610890155679    0.48332050106427
O           0.25950733005236   -0.12360196898840   -1.21812272092811
O           2.06711679841164   -3.40795295106212    0.23312760534790
H           2.84187010912832   -3.97053626374556    0.27480146202875
O          -2.09808539899871    2.98672416176948    1.07088851866327
H          -1.87145327981145    3.30404097486613    1.94606964045304
H          -1.25029152415919    2.69451495961273    0.66430961728652
O          -2.90018790882140    0.50220906572144    0.53549593210578
H          -2.88460930075781    1.41967186948101    0.88397118317967
H          -2.50500846144114    0.76645378647048   -0.87365832453797
H          -2.05416817678690    0.11606710664455    0.86076779893247
O           2.53130215572074   -1.46981388930696   -1.56042309730106
H           2.21309782674689   -2.78884550095469   -0.51852057133437
H           1.65634762454937   -1.03174911904555   -1.56380390934716
H           3.11699584552473   -0.83888213718517   -1.13313531845377
O           1.67746449858080   -1.49257616118087    2.05547710703002
H           1.94341773823572   -0.29051200055747    1.15564069471861
H           0.72940587719632   -1.28719568778983    2.03663313748285
H           1.79669294888782   -2.28721356740551    1.48442323057316
N          -1.96411141886211    1.01865901438996   -1.80108285320343
H          -2.47370981494062    0.77596197779844   -2.64470884913095
H          -1.03307581085771    0.48316301159400   -1.70905934283537
H          -1.73214865017323    2.01002782166160   -1.76876717158813
