    26
        -50.46160219  Gyration_radius:  2.61723728016 Dipole_moment: 3.623
 S           0.13232120769912    0.66593464877401    0.16017006169606
O           0.94508314341649    1.20332738496975    1.23381319330112
O          -0.45812083525700    1.84056169213783   -0.65754732093293
O           0.89334636671518   -0.18796740088100   -0.74223877547295
O          -1.01044745419255   -0.07281561007921    0.73904022643961
O          -2.73453281847644   -0.40631878312651   -2.88044595430342
H          -3.41957856595161   -0.13535828599446   -3.49344615791873
O           3.39930350666665    0.34318217903522    1.66889412116601
H           4.01637020960918    0.85262647990051    1.14181278648916
H           2.51891610833316    0.76093334100374    1.52833902936402
O          -3.16553118014451    0.82794549136364   -0.53968047148774
H          -2.98886353695739   -0.04356140978159   -2.00105273793665
H          -2.46669709430743    0.40997311761037    0.00288867783648
H          -2.87304050735511    1.73621844423516   -0.65461114315285
O          -0.32410792711805    0.74636126196290   -2.93298997368557
H          -0.43942963022813    1.53025118916991   -1.63008098858678
H           0.28278557421814    0.12717864599933   -2.49748426007993
H          -1.17898726769305    0.26602817252934   -3.03383241541222
O           2.18186808904322   -1.87192230862280    0.82353992116577
H           1.17641976559379   -1.63301452730851    1.89291662117697
H           1.73735203382126   -1.39270721583226    0.08636422335685
H           2.88234444645936   -1.24894521875957    1.11455602739847
N           0.40275358563737   -1.20988507327041    2.55523051814058
H          -0.31960232252911   -0.79326815881180    1.87196960905979
H           0.81425758753803   -0.42372503443844    3.05557952967672
H          -0.00418250459666   -1.89103299178686    3.18829566269405
