    26
        -50.46160197  Gyration_radius:  2.61735332113 Dipole_moment: 3.621
 S           0.31936315768954   -0.55142380864116   -0.28499054339016
O           0.31320757922613   -0.17594875326780    1.12263376021451
O           1.77586620737791   -0.48072433348754   -0.80517776935930
O          -0.19290330954891   -1.88980392902233   -0.50509889683558
O          -0.47071483825727    0.40886582140325   -1.08532198331019
O           2.13368124646378    3.36306872708207   -0.27902284722148
H           2.84161380222236    3.93896590533563   -0.57170603793422
O          -1.37533420588684   -3.24905986571297    1.41966940264885
H          -0.71972208503521   -3.74205916108820    1.91456472527719
H          -0.88860411820782   -2.83191251282913    0.67238036112453
O          -2.11204412158676   -0.75028647448784    1.98138047636361
H          -1.98419767894406   -1.72075791930191    2.05406445081133
H          -1.20036491074792   -0.40681510066654    1.83477655371102
H          -2.61517748562690   -0.67050241680881    0.58410318991284
O           1.31445170453923    1.90557149440559   -2.37481479435017
H           1.76834153600440    2.93777843175009   -1.08856337999880
H           1.97856449853161    1.22348295866703   -2.50693075763086
H           0.55734173567283    1.43784950552512   -1.96801793100980
O           2.67714197284085    1.06852099741060    0.97814379761561
H           2.27186424160200    0.11555329898376   -0.14115877475396
H           2.52230121140165    1.97660843033354    0.62718678568159
H           1.87322187768581    0.82698051490785    1.46463869814633
N          -2.72353679283819   -0.68019177209413   -0.51333723486344
H          -2.60453129303253   -1.64058821544534   -0.83144980839986
H          -1.86168807046578   -0.13387035606896   -0.86110743311006
H          -3.59814186109780   -0.27930149687157   -0.83684401933995
