    26
        -50.46278511  Gyration_radius:  2.54851557779 Dipole_moment: 6.699
 S          -0.58822330512923    0.45363062986089    0.99721265094888
O           0.58682008709125    0.49236193426415    1.84354237136306
O          -1.63631951757117    1.45555917077941    1.54888651250477
O          -0.28672411233754    0.85337628245481   -0.38006615193888
O          -1.24755499344252   -0.85666977783898    0.99395018540182
O           1.93368244349345   -2.22039068547528   -1.25045914979221
H           2.86577017418001   -2.00297064592800   -1.29741328075856
O           0.69016612155244    3.31764278277944   -0.35076044857036
H           0.39943498979741    2.38295009426878   -0.42175759621919
H           0.12608719169989    3.81828644210527   -0.94248648362814
O           0.17677291301658    3.11414544964451    2.28312137745937
H           0.69756293125179    2.31243442563242    2.44385789439279
H           0.46649842080712    3.42932478954914    1.40207789329688
H          -1.07839588686497    2.20922955355622    1.90381423526133
O           0.14229969004744   -0.69114395390718   -2.46384632645547
H           0.89750235381825   -1.24660639431058   -2.15430679362949
H          -0.99129921967605   -1.42466544381786   -1.92799325270027
H           0.08500914827088    0.03829851642795   -1.80747200991516
O           1.25683685173780   -2.00158112033744    1.31601412135906
H           1.22041577105060   -1.05728315726169    1.57069331687060
H           0.35902720646751   -2.30624601329423    1.47562068852605
H           1.69820246529747   -2.17868472833083   -0.29259705831583
N          -1.78257515926851   -1.88961766195162   -1.29613527693443
H          -2.71142481566321   -1.65065223739035   -1.62594344132289
H          -1.61477605063175   -1.45400364850827   -0.31550832011645
H          -1.66479571900491   -2.89672459296724   -1.25204563709072
