    26
        -50.46278527  Gyration_radius:  2.54858856162 Dipole_moment: 6.699
 S           0.69210073361753    0.98157176041757   -0.31121162689380
O          -0.71450224498217    0.66829409207511   -0.04522448845262
O           1.20984047785276    0.07454428757142   -1.34129386346725
O           0.73804217019448    2.40185521290013   -0.93339404497565
O           1.48838320938864    0.97463241589197    0.89892756836065
O          -0.12998751278268   -3.03431888262402    1.00865777780629
H          -0.22503299323792   -3.17383060658005    1.95192121892296
O          -1.67545746983507    2.47200435551694    1.64366340179449
H          -2.44172305626617    2.84458238014315    1.20436289725921
H          -1.36276102795068    1.73792886377953    1.07229029869044
O           0.78490955169063    3.52740938970623    1.37027280799216
H           1.28247249535226    2.73697205461248    1.63005601082748
H           0.76904973367018    3.00848698508837   -0.13562340233262
H          -0.13634597227129    3.34744742984588    1.65025508769553
O           2.08258656994475   -1.58543355100511    0.69905605202124
H           2.31438195903033   -1.48603090748787   -0.22882315456725
H           1.91681674280671   -0.66468030674383    0.98663661083173
H           0.71346380844759   -2.53335061095025    0.89682270654513
O          -1.94215147723731   -1.63896729741899   -0.32903137446163
H          -1.65316948665488   -0.73041621231577   -0.08956570205804
H          -1.19798826373218   -1.67699768371406   -1.57565894415957
H          -1.39806220484736   -2.23264922656348    0.24207576774574
N          -0.46415167716672   -1.55729470332339   -2.40578093797718
H          -0.00151635107101   -2.43727888761510   -2.60987985358047
H           0.25331378636129   -0.84436317479333   -2.01051533014032
H          -0.90251151024012   -1.18011717656933   -3.23899549351125
