    26
        -50.45396355  Gyration_radius:  2.61562828872 Dipole_moment: 3.042
 S          -0.70163393776978    0.18409044169308   -0.51245943490357
O          -0.34004935022737   -1.30381288946802   -0.58149017915577
O          -0.06185037785955    0.68526198064285    0.78310870375529
O          -0.09121405001935    0.88066983826259   -1.60797945040897
O          -2.13468089376945    0.29985587799143   -0.40605382149452
O           2.19107535425531    1.83864248140979   -0.47190324093134
H           1.87046731501855    1.85744007202201    0.43342559678963
H           1.40363170652537    1.64213733849194   -1.00629378756280
O          -3.17772606418275    1.71261323150458    1.66585902693336
H          -2.97275376643743    1.25779768709913    0.82930458498814
H          -3.11324078551347    2.65247779912016    1.49138713026326
O          -2.48195167532999   -1.91883615212937    1.10712093124639
H          -1.81742289141488   -2.49566811553093    0.72175416476650
H          -2.60995558494005   -1.20521997946830    0.45934843108952
O           1.37299173139366   -1.31294799716593   -2.36338191344809
H           2.25920639999020   -1.12122565963738   -1.90337373929531
H           0.40517428895521   -1.41165934425613   -1.32842247864606
H           1.07932264890547   -0.46473887687882   -2.71916148395953
O          -1.45246364483778   -0.06025091423913    2.69618736292675
H          -0.60690415129630    0.35519146636739    1.64491533785475
H          -2.15026494675514    0.62492150419491    2.63583239300744
H          -1.86805508609010   -0.87641505312864    2.32727469171711
N           3.55708091451166   -0.58655067004353   -1.11174535601636
H           3.24790591918326    0.35093407877172   -0.84004866781339
H           4.39405356875091   -0.48976205234668   -1.67188203045929
H           3.79925735892756   -1.09494609328880   -0.27132278122577
