    26
        -50.46278465  Gyration_radius:  2.54853276457 Dipole_moment: 6.701
 S          -0.11662959906757   -0.96393072697002    0.77766354568017
O           0.40203719213926   -0.27339543400545    1.94063902684293
O           0.61355270563472   -0.61006074429064   -0.44271448324731
O           0.04954201572284   -2.49229240733578    0.98637371416374
O          -1.55170107006559   -0.74005525834830    0.57247704086159
O          -0.56761490467882    3.08913125751637   -0.62153696209943
H           0.12563277851835    3.70768748923069   -0.38685965427385
O           3.16720071755416   -1.24131910740416   -0.11185020196504
H           2.25196232714574   -0.92427670280682   -0.26980811039742
H           3.38096839282728   -1.81761348512305   -0.84745854850999
O          -1.19415657460036    1.80066966714283    1.62386097675127
H          -1.95871782259625    1.22960612647505    1.50679117110144
H          -0.48139584616474    1.17322008342790    1.86068996106102
H          -0.82501884667186    2.64464946010927    0.22154006588427
O          -0.07194046687402    1.10845567642761   -2.30999080444295
H          -1.37874106658851    0.49733108604849   -2.14117821715210
H          -0.17540252936473    1.94212961195899   -1.79135063910585
H           0.38605851867345    0.49085431432110   -1.69752234479999
O           2.26597445760812   -2.18897559694992    2.24045412614637
H           0.90973550657817   -2.56941273703206    1.49566089324612
H           2.83490349337011   -1.91961011645816    1.48999955857152
H           1.85688936755199   -1.36629307475003    2.54975881462150
N          -2.29599672814338   -0.02102483910598   -1.77830792561470
H          -2.01594135795457   -0.37323428902477   -0.78984729938506
H          -2.53696977705880   -0.80882672139406   -2.36990996472058
H          -3.07423090338404    0.62658646801438   -1.70757371921313
