    26
        -50.46278510  Gyration_radius:  2.54842398807 Dipole_moment: 6.692
 S           0.82329831583649   -0.90090617712322   -0.21701517634060
O           0.64751439087950    0.22893230029851    0.69977051075939
O           2.27954264057855   -1.40833008487167   -0.04880708388771
O          -0.08813737485970   -1.98732065104089    0.07884710495887
O           0.71973182847432   -0.42829711727567   -1.60182123688875
O          -2.90440778578980    1.22837243805998   -0.55150883877899
H          -3.59577318612265    0.99399285106046    0.06921706393974
O           1.07154754432370   -0.62228151603898    3.17440045049106
H           1.75638170364768   -0.04954806247069    3.52354674310090
H           0.83751296503054   -0.26215270669393    2.29195621129901
O           1.63837497239112   -2.93058530133286    1.91266906585521
H           2.21744353926584   -2.05683583952727    0.71344487969762
H           1.47395327965433   -2.24570723062180    2.59340835060576
H           0.79790361446746   -3.01435766580156    1.43684232571587
O          -0.70822549482685    2.44447903123583    0.29477471791667
H          -0.05391843629310    2.39288562579108   -1.00032515221504
H          -1.60701750002458    2.09943353110227    0.07568390243494
H          -0.22615705842633    1.66939628513102    0.65971789799897
O          -1.97395268850198   -1.07130086063590   -1.51851132895053
H          -1.44294367524114   -1.52447128795095   -0.83253070181315
H          -2.59295492275437    0.37515850801334   -0.93873780156371
H          -1.33888308419306   -0.92643058866690   -2.22581805454537
N           0.45395374738823    2.10311347307635   -1.94927872774219
H          -0.14541636486902    2.27794477230135   -2.74940991087919
H           0.61739334655912    1.03579687129815   -1.83475703309308
H           1.34323566232927    2.57901942180147   -2.05575816804123
