    26
        -50.46278517  Gyration_radius:  2.54849359362 Dipole_moment: 6.693
 S           1.20677613441034    0.09289595923299   -0.25790707370668
O           2.55441137797222    0.81296705431801    0.00917249908390
O           0.14720214137369    0.92189872934543    0.32299974998080
O           1.04189332747230   -0.07615788825088   -1.68717639772010
O           1.28219329646350   -1.18216521978345    0.46344554033960
O          -2.73430206179946   -1.62806706335441   -0.30730885660389
H          -3.31633936728309   -1.36717252381446   -1.02244961850132
O           0.20344699721289    3.29949775788189   -0.84857086636019
H           0.08770206240562    2.42145552799980   -0.42571501819529
H           0.29658262477736    3.93042625895262   -0.13286868724762
O          -2.03287264221031    0.12087018655054    1.55528284956377
H          -1.33267929715197    0.60727447299393    1.06595688656570
H          -2.44747846110331   -0.46774604499221    0.87973422818243
H          -1.11196057181538   -0.79459135530851    2.20554424143047
O           2.33481709709463    2.24430489031036   -2.10701669543031
H           2.64381906403756    1.44233682769913   -0.76632796681969
H           1.88706953280278    1.46181248206019   -2.46348557607882
H           1.61115140585177    2.83772864058496   -1.81763913645578
O          -0.41219384864781   -2.26070431919027   -1.44509923016173
H          -1.88910575460660   -1.90244776267631   -0.73806345111347
H           0.03711365095160   -1.44178884209284   -1.73761959109619
H           0.20522126096627   -2.63308666361669   -0.80902152802171
N          -0.27157138480556   -1.46952044275199    2.48893661075976
H           0.43240340920119   -1.35633379881789    1.67008834230867
H          -0.58470206340035   -2.43326694281292    2.54575959104116
H           0.16140207992544   -1.18041990036089    3.35934913418308
