    26
        -50.46278516  Gyration_radius:  2.54827902432 Dipole_moment: 6.692
 S           1.11877559761193    0.19203730510461    0.50087509410284
O           0.14333442606993    0.92928036322313   -0.30710162223892
O           1.77238481398499   -0.85456919285969   -0.25842697064020
O           2.18887179203639    1.21012738228695    0.97446420947419
O           0.46985042645180   -0.30581392058444    1.71847330381975
O          -2.34109245271903   -2.04641550517104   -0.73581033889203
H          -2.32508205674186   -2.42551365421889   -1.61573909896579
O           1.40118986619572    2.00622790699656   -2.37737874562670
H           0.86761825348373    1.58046502481430   -1.67223962709634
H           1.20459194164240    2.94337726785378   -2.33230025338143
O          -2.46030462571682    0.58019666255677   -0.40695819630925
H          -2.53227088777208   -0.37448797146196   -0.64766266834794
H          -2.32390459759793    0.50100381870638    1.03659774803137
H          -1.51699192821429    0.80711493700407   -0.56560404043877
O           3.55766232990057    0.93515215398271   -1.17619432342252
H           2.95846757259740    1.39140028307751   -1.80260699410982
H           2.84773615403915    1.22835443651462    0.21867263316006
H           3.23280223918442    0.02237312926638   -1.14198338775122
O          -0.01049548497969   -2.68634501517353    0.38092535560821
H           0.02273135484140   -2.43757618878967    1.30895935072119
H          -1.49349906032630   -2.32244775527566   -0.31100660993650
H           0.69870064451387   -2.14393563346732   -0.02047465597492
N          -1.98386387212408    0.35921157832776    2.08845852402230
H          -0.93337544525187    0.10531869680369    1.98409744236916
H          -2.48305439242351   -0.40602894885638    2.53033184656704
H          -2.08078257876785    1.21149283938613    2.62963201512844
