    26
        -50.46278516  Gyration_radius:  2.54851418401 Dipole_moment: 6.688
 S          -1.10409981072591   -0.29063500020891    0.48221546146027
O          -1.90331912682862   -0.84284873186850    1.69146801372891
O          -1.77372512430369    0.89152102942037   -0.02050530536916
O           0.25150905252868    0.00468846075233    0.95399211823042
O          -1.05449704787142   -1.38034095779260   -0.49863708686732
O           1.71400445399741    0.87057101791361   -2.55619687298367
H           1.85981198477072    1.80919296173151   -2.68267741807170
O           0.09219548393192    1.80400265957532    2.89437415774989
H           0.53541583319377    1.40475347669385    3.64477096568821
H           0.22323925967102    1.18932395090058    2.14060542908233
O          -2.54990635622622    1.51025299825139    2.47898313034877
H          -2.25626287510309   -0.01757996688300    2.13851689344216
H          -1.67577419948938    1.80899960357238    2.80491643366671
H          -2.54543941566720    1.71524265953148    1.53148465670203
O           2.51991091573376   -0.32736265639768   -0.33420561654294
H           1.91889826764383   -1.60127534685447   -0.69035411354115
H           2.36861954270438    0.19541003681328   -1.15782022028691
H           1.79117611005155   -0.05968847146646    0.26856158827127
O          -0.92709136281326    0.54012388207360   -2.49135491973136
H           0.73441773896151    0.74794661446913   -2.57596499785330
H          -1.16976347307184   -0.39007546076328   -2.46958386848805
H          -1.27445139615476    0.88008858359277   -1.64176984613979
N           1.24000081194632   -2.45091721833984   -0.93252002521122
H           1.41754719265196   -3.25141352325571   -0.33557012899327
H           1.31734309961774   -2.70798986532662   -1.91131242464770
H           0.25024046094970   -2.05199071626573   -0.73141599379280
