    26
        -50.46278518  Gyration_radius:  2.54854638895 Dipole_moment: 6.694
 S           0.66694857822616    0.16732420573500   -1.03226703180492
O          -0.31652485863666   -0.43417536503778   -1.90978668799769
O           0.78460974551562   -0.55481239648517    0.23753676871158
O           2.05457043604364    0.11380944321720   -1.72346987036606
O           0.40399199304915    1.58570397489089   -0.76648212248712
O          -2.77897673953955    0.35750493129010    1.53844048280572
H          -3.39384960519660   -0.37668678086716    1.50473879138495
O           1.49058914086052   -3.05759962884490   -0.27880701642880
H           1.16535611308935   -2.16672614445454   -0.02638275867501
H           2.29132560440209   -3.20299924405278    0.22773681820355
O          -0.34634903543997    0.03050745578471    2.53762481103624
H          -1.30314444009190    0.06035937343809    2.29675702297218
H           0.09264227040670   -0.39047248518666    1.76534267593396
H           0.07452469571340    1.37805583299178    2.19528478543029
O           1.54586850153414   -2.15144874179654   -2.81171407159887
H           2.03253366912156   -0.75126090755961   -2.23024886177968
H           1.58190047741116   -2.71866986178884   -2.01385550375054
H           0.63638346729107   -1.81656308014597   -2.83750814063294
O          -2.30356117755600    1.03315151551503   -0.99246267272069
H          -2.63907948992900    0.63130899047691    0.60011149786589
H          -1.77984524958705    1.83682305310043   -1.05656631908464
H          -1.72661656920380    0.35773321389930   -1.40393598678320
N           0.37676245542688    2.32591528959621    1.69343318368532
H          -0.32673176563054    3.04539508278816    1.82590104125996
H           0.43325614923357    2.05185816326378    0.64432061041897
H           1.28341563347745    2.64596411012815    2.01625857438504
