    26
        -50.46294297  Gyration_radius:  2.57085526745 Dipole_moment: 5.001
 S           0.82783756277392    0.81030332241479    0.25003428881083
O          -0.40728684789739    0.23610776070549    0.77459738015785
O           1.55873259747052    1.50303511835113    1.43500521819978
O           1.74259278435748   -0.25396633686449   -0.19514633542715
O           0.58070348736909    1.78656491992648   -0.79061056663098
O          -1.50182653291450   -2.22607816763989   -1.96071824933747
H          -2.30958628349468   -1.95355672459908   -2.39820801454694
O          -0.82274758024913    3.86033885153485    0.05574388641283
H          -0.35050927772276    3.10587569777008   -0.36052573786693
H          -0.27612697052705    4.63207878478584   -0.10154626929470
O          -1.28830920963571   -2.22869634230385    0.68225671427664
H          -1.51723540798668   -2.31686171161570   -0.27368679246188
H           0.10745956450543   -2.58864229345424    0.69648609365589
H          -1.13940978423537   -1.26349516628606    0.80958084219160
O           0.32670014237130   -0.33924485351702   -2.47050138620869
H           0.07153046945302    0.58047578376439   -2.32352323454008
H           1.04300915843647   -0.45942978675603   -1.82670488771131
H          -0.82127652117468   -1.55706645823930   -2.20559666680883
O          -0.65703801144204    2.44471454399733    2.32857281129124
H          -1.01041022341544    1.61387573932684    1.97783142052252
H           0.82112998106653    1.96934645508814    1.92470433507802
H          -0.85989172209538    3.11647610410144    1.64309329614986
N           1.22296048377657   -2.64409534798536    0.61448392745134
H           1.50588105030491   -1.64538952991253    0.31377179399693
H           1.49967959282167   -3.30716309623160   -0.10271720604215
H           1.65343751812981   -2.87550726623967    1.50332332859626
