    26
        -50.46294279  Gyration_radius:  2.57126916625 Dipole_moment: 5.018
 S           0.35761450972772    0.49771856254396    1.01641922466947
O          -0.74622213562390    0.51691250077470    0.06172172796861
O           0.72746035665975   -0.88804651064349    1.34880902596172
O           1.49412098982479    1.26898224641533    0.55743838383895
O          -0.16753662848023    1.10738295773415    2.34699084439116
O           0.39721464372076   -1.89331645931838   -2.70186433167413
H           0.57235535310978   -1.45248783578701   -3.53439837652025
O           0.93495357933599    3.83054695992894    0.22371155935745
H           1.21805234246486    2.89040621758858    0.26283414560784
H           1.53144278000935    4.30932101219707    0.80166208280440
O          -1.44666175175488    2.93415457110625    1.07354520961039
H          -0.70306797338614    3.48217200445974    0.74327986375202
H          -1.55200061594959    2.23120825787809    0.41559938378509
H          -0.70898191560441    1.89332979270104    2.04626089117823
O          -1.81555979355773   -1.43913494895948   -1.31278210763362
H          -1.10249058056152   -1.62767177636046   -1.96831099870355
H          -1.42505084621049   -2.26482627534120   -0.19764186299020
H          -1.54822791692700   -0.58589942017554   -0.89958662371071
O           2.14571491912489   -0.91783844660835   -0.92605937884345
H           1.81322896257765   -1.15067516893894   -0.04440706063808
H           1.08420655454726   -1.57070333607539   -2.07371894630304
H           2.23164763987179    0.04209263955798   -0.86544973620698
N          -0.95292381522158   -2.73197885122085    0.70399104287668
H          -0.25989009723490   -1.97753283829516    1.04759807627536
H          -0.44259775597370   -3.57161477341575    0.44861723626353
H          -1.63680082439926   -2.93250109191108    1.42574075488595
