    26
        -50.46294299  Gyration_radius:  2.57148527594 Dipole_moment: 5.011
 S           1.05815191938181   -0.35920894438711    0.39250071939674
O           0.42285747866575   -0.18777619993227    1.70948592840548
O           1.88405155163855    0.77517893492028    0.03448135222979
O           1.95839295448523   -1.61888563285043    0.53814167786929
O           0.05410790890698   -0.65558216330211   -0.62447237992826
O          -2.60487705406390    2.06976208688525   -0.09899275695115
H          -2.65650170243655    2.68734497497793   -0.82977279009128
O           3.26997800412642    0.38700700018856   -2.18239192324675
H           4.19233029844118    0.47843014987364   -1.93734981877880
H           2.75298176628454    0.64230899716977   -1.38675700220017
O           1.98808960571462   -1.96303294679671   -2.00654662539846
H           1.08997103820424   -1.60612727952769   -1.94264417096430
H           2.54364803697643   -1.20508784078133   -2.28798607692703
H           2.10783869806806   -1.91007120896411   -0.40744610241592
O          -2.55979702448894   -0.55303237385376   -0.48832582233449
H          -2.71514229427799    0.42079183808729   -0.45179912611838
H          -1.61144625266825   -0.64002173838276   -0.73926534022489
H          -2.36660668667436   -0.88447696556091    0.90201089642713
O          -0.15798921519050    2.31973114713561    0.95655303563834
H          -1.72401378708735    2.21448474620779    0.31766187200255
H          -0.00896573514771    1.53645870153041    1.50984135057800
H           0.59538889362804    2.29080095333930    0.35308076104148
N          -1.99608580385893   -1.04153606315881    1.94661859563324
H          -2.05899289167317   -2.01489713738978    2.22501021722702
H          -2.49677796978830   -0.44737800571441    2.60001552437014
H          -0.96059171717899   -0.73518504974801    1.89834800474640
