    26
        -50.46294274  Gyration_radius:  2.57165336712 Dipole_moment: 5.019
 S          -0.32616770363107    1.11180461749374    0.24857257666004
O          -1.36395806957822    1.32330660124349   -0.73894088896180
O          -0.84833214059544    0.48782813699303    1.47559170780470
O           0.79267975309187    0.33901624734842   -0.28181057328589
O           0.23405502116552    2.48972458947988    0.70228662173226
O          -0.53662774796467   -3.26452624492745   -0.35591050052009
H          -0.64476143567758   -3.60711130842770   -1.24419665121151
O          -0.53464964957248    2.69912544802931   -2.83761088372968
H          -1.08809316664391    3.48094989804859   -2.87737427044179
H          -0.91541911663904    2.13481171930786   -2.12898043208180
O          -2.20867773398759   -1.18820790358939   -0.11545458888855
H          -1.19855655348100   -2.54113470874144   -0.26091164496051
H          -1.92413951092933   -0.68682073260291    0.66529496686706
H          -2.19244308866170   -0.51562020800447   -0.80819007088359
O           1.72069540292661    2.63671396750859   -1.38644280232457
H           1.04565630382839    2.77988404150802   -2.08379904974476
H           0.85961997444864    2.74249240057979   -0.03669715828055
H           1.76472532129632    1.67582740441083   -1.27307980204927
O           1.68055592220234   -2.02609859888061    0.40914011952283
H           1.49485863834377   -1.14715339591888    0.00516752801563
H           1.18453393842198   -1.68589375244259    1.71967700995415
H           0.96586851731332   -2.61089232401957    0.06158522978947
N           0.65001469997811   -1.27272543437772    2.61243637199209
H           0.06365669396773   -1.98162901841881    3.04171074882608
H           0.02891345976633   -0.49130072280302    2.19786201761803
H           1.29599228061930   -0.88237070882971    3.29007439860476
