    26
        -50.46294307  Gyration_radius:  2.57094067334 Dipole_moment: 5.004
 S           0.14039175845557    0.79200914945023    0.86995587522442
O          -0.77549123486779    0.42284680025610   -0.20475608668545
O           1.28551114554073    1.53413028705407    0.38502052448773
O          -0.65248000428414    1.67698358293189    1.87315046717298
O           0.53788332650733   -0.39823387305980    1.64007632541784
O           1.00147420512619   -2.50030671082125   -1.95028717962448
H           1.28813061917490   -2.28233897790523   -2.83824930460685
O           0.62005364713410    3.82555167993109   -0.75236383434319
H           1.07106342507430    4.50943319568745   -0.25437535200098
H           0.95555409185498    2.97103048040875   -0.40206655368643
O          -1.44889547480000   -1.94410084644856   -1.10263696876984
H          -1.31752670002937   -0.98539765903666   -0.91964452736226
H          -0.61840730021956   -2.22228540416167   -1.55735395808044
H          -1.21510113814322   -2.37828735647426    0.25252106423624
O          -1.80802535210774    2.92580062454690   -0.05042174626107
H          -1.18461709017755    2.28315471681293    1.28097437590320
H          -1.05695078435543    3.44539748280680   -0.40839659272450
H          -1.74578911512367    2.06257837481607   -0.48536416694524
O           2.33734120155475   -0.88376730820112   -0.28752968829172
H           2.34328794774568    0.06014932037408   -0.49164571366282
H           1.87115418227334   -0.90747766309936    0.56337362454248
H           1.54318776366655   -1.94252976828475   -1.34517606569396
N          -0.88769291857008   -2.51913245705199    1.31383593029525
H          -0.31217862558164   -1.62847184209375    1.52304849149326
H          -0.29315770362544   -3.33726086223985    1.40239108751428
H          -1.67871988194823   -2.57947497607322    1.94591998244727
