    26
        -50.45396341  Gyration_radius:  2.6160933244 Dipole_moment: 3.049
 S           0.30438882637890   -0.33181421326673   -0.76517216974063
O          -1.19471058616265   -0.02332206412375   -0.85049780327303
O           0.54261045545265   -1.61016339231937   -1.38743923897334
O           1.05498242709015    0.77407234035969   -1.28619304127546
O           0.59910777569447   -0.44143821507895    0.73155911477965
O           1.81370408652674   -3.53954165965016    0.04113769358491
H           2.75658190938135   -3.37038052170525    0.05952679807607
H           1.43541170927611   -2.94304638675468   -0.62946011465919
O           1.66232457157815    2.16439045334736    0.97538811585025
H           1.60092223681277    1.76154571526666    0.09322391958244
H           1.61180743589415    1.42287883800636    1.58395117185227
O          -1.78535970164824   -2.74399063651920   -0.59495284678279
H          -2.37516566066218   -1.98873470588008   -0.66421756865488
H          -0.99643722524558   -2.50191914527791   -1.10902389996976
O          -0.21601798317786   -2.63902669875814    1.54186285822025
H           0.53438978872251   -3.18813564292649    1.23327264669512
H           0.23008823389076   -1.36142418832685    1.13864120819258
H          -0.94418915876001   -2.82415399995077    0.90126639270588
O          -1.17196827432413    2.36296690500659   -1.49433872067470
H          -0.26638952128809    2.31644543960778   -1.82602529754271
H          -1.29064187067251    0.99781407582423   -1.12104073273939
H          -1.11563241350329    2.88963727143631   -0.62647518337700
N          -0.79453804730800    3.60728144697483    0.78020420653743
H           0.13209426044437    3.22431141634803    0.98766020145224
H          -1.41258253379877    3.37054444792718    1.54537166761032
H          -0.71478074059586    4.61520311042962    0.74177063252851
