    26
        -50.46294286  Gyration_radius:  2.5714854371 Dipole_moment: 5.005
 S           0.71032439128353    0.88681336279860   -0.33783807695179
O           0.71215093316824    0.15427995576377   -1.61495142888121
O           0.46833441181160   -0.02628584426564    0.77466617453257
O           2.15751440765003    1.43460786270169   -0.18339188710547
O          -0.21861422357002    1.99770669924098   -0.34882872319090
O          -2.63496044793092   -2.00701918694753   -0.31994690038066
H          -3.40391194150861   -1.81864147117408    0.21982395123352
O          -0.04913834639542    3.51069941507172    1.81171048726551
H           0.16697056487961    4.39187349539527    1.50196595242784
H          -0.22306789361195    2.97640769696806    1.00558976200146
O           1.84984023193610    1.69461147897965    2.35293274193005
H           2.23173373327523    1.62554765456977    0.79605093939632
H           1.21883680617261    2.44500483634005    2.38606888456806
H           1.29745344860085    0.90658260281365    2.24376400854942
O          -1.96513314536929    0.28058984030098   -1.53782711777540
H          -1.05677958673643    0.17261143932027   -1.86218128278734
H          -2.43557529477236   -1.17518883138274   -0.80860513188033
H          -1.89540083399759    1.07490826379025   -0.99318610583601
O          -0.27161335462397   -2.53914112566507    0.75882143324566
H          -1.21213975078069   -2.46254783438515    0.47000266268590
H           0.43000440623116   -2.60138973147238   -0.49952834627500
H          -0.00554136011292   -1.61500970683075    0.97122055718839
N           0.93003203132678   -2.40921464507884   -1.48255936875985
H           0.90521171441803   -1.33250583126129   -1.57459373641725
H           0.40369313340290   -2.82797327363823   -2.24291872917761
H           1.88977595526437   -2.73732713181939   -1.48626073971851
