    26
        -50.46972953  Gyration_radius:  2.43087726927 Dipole_moment: 5.129
 S          -1.13468553941332    0.52451985185110   -0.95059657858992
O          -1.09896467276241    0.84769096909979   -2.35274756218874
O          -2.36031232361853   -0.06430244172611   -0.46590131835433
O           0.01345569127344   -0.55702979729406   -0.76820998084989
O          -0.70506724625256    1.65496839096217   -0.10248457823099
O          -2.23077870735046   -2.42886341683101    0.72131485907263
H          -2.59579349025732   -3.09560544816608    0.13919367299325
H          -2.36722609653100   -1.56852824473661    0.26600162355395
O           2.50910081931869   -0.51196169448816    1.15491770330153
H           1.66180728375862   -0.76156321677409    1.56544034605990
H           2.80771710537458   -1.29078907288538    0.68158477722017
O          -1.67973850149617    0.78281943669248    2.18874951494717
H          -2.53506720187571    0.43155092262100    1.92458329223655
H          -1.36281185681114    1.27344560912782    1.40244201947974
O           1.42766972862139    0.76175191754062   -2.91780240445703
H           1.85151674083119    1.26667960094377   -1.45258794651312
H           1.55657053926619   -0.17742107800406   -3.06511215206785
H           0.44411723504634    0.86626298069509   -2.82018491635096
O          -0.06377360230880   -1.24108934482249    1.75062460181166
H          -0.01602547513858   -0.85353942051939    0.18159827161904
H          -0.60129289567964   -0.48316195619149    2.10082995660720
H          -0.71872756870946   -1.94821355701960    1.61264044812579
N           1.84111580201285    1.58313257250807   -0.44028782583025
H           0.79979094876718    1.73495507773071   -0.23011043664772
H           2.37199367563408    2.43734441122451   -0.30755295425732
H           2.18540961822360    0.81694693843189    0.18365757731507
