    26
        -50.45396366  Gyration_radius:  2.61558455402 Dipole_moment: 3.037
 S          -0.45493326822816   -0.11643188438581   -0.75534441714835
O          -0.83799245655070   -1.18113453260182   -1.64855672055322
O          -1.26777399568531    1.06491185143398   -0.79506059768656
O          -0.45537529612332   -0.64363588698197    0.68026700846604
O           1.00532029601081    0.25264247611869   -1.04007507121605
O          -1.84841517565657   -3.46971002138325   -0.59060743438244
H          -1.59487026405228   -2.69943466449014   -1.13006886553187
H          -2.76654017533257   -3.34498077979380   -0.34672916764618
O           1.57350288775103   -2.41282359352842   -1.66482660664691
H           2.15586039645520   -1.64921522256469   -1.63653152013388
H           0.70530272934182   -2.06430698245118   -1.92942470967095
O          -1.39511470119355    1.75663703897352    1.83610661860228
H          -1.51418167510745    1.61517284447449    0.88212560491887
H          -1.24582396311507    0.87781332685345    2.19404833576943
O           0.91092955437534    2.72189848132261   -0.97679386848563
H           1.06933057786509    1.31121971244468   -1.02904643825965
H          -0.04283018572486    2.73912344335438   -1.12629396555031
H           1.03718426649666    2.98442497923597   -0.00276168313975
O           0.45368901358057   -2.95082445307667    0.67944889582430
H           1.03878675257779   -2.92847678123269   -0.11560830556659
H          -0.03429186078304   -1.62737115609407    0.73850232463759
H          -0.35439170027376   -3.41825101850671    0.38201267661338
N           1.01323724468334    3.27083655191826    1.58328250904951
H           1.76092167134143    2.84794833872014    2.11758499831233
H           0.13467645890683    2.81755370747845    1.84967019516838
H           0.95379288843930    4.24641423476479    1.84468020425168
