    26
        -50.46742638  Gyration_radius:  2.40237225666 Dipole_moment: 4.782
 S          -0.26429629088969   -1.10323357499436   -1.29593306272267
O          -0.65985668914060   -0.95113829478571   -2.69399555705992
O          -1.30794010847866   -0.61306339649093   -0.39575549008436
O           0.20162456051789   -2.41702209052836   -0.92432028311721
O           0.93902297609526   -0.09170914722788   -1.17962253246951
O           0.17822103675520    1.58201481033144    2.02542532810578
H           0.09842904595632    2.11942078645206    2.81414278589679
O          -1.17604266610893    1.97523974659904   -0.38243407429554
H          -0.57482556563520    2.09154429354725    0.37274931468224
H          -1.40877242180864    1.01556522606622   -0.34057058825217
O           0.78571410931201   -2.52434760531393    1.60591205602617
H           0.51639691268733   -2.53899109931025    0.64973667034759
H           1.18911185189497   -3.37714300891536    1.77476319630818
O           2.06638913532482   -0.18247110504190    1.11883773230413
H           1.43116172825831   -0.16971161103551   -0.30153580117146
H           1.54177372795571    0.52423150435812    1.53727933071142
H           1.72174612755706   -1.02986134212364    1.46105385933387
O          -1.16276934027706   -0.65653000952792    2.25580501755689
H          -0.54696113501591   -1.39587385005732    2.35975692805569
H          -0.39155564798574    0.77564326877632    2.17888497311472
H          -1.41782184425968   -0.69788149116231    1.31184951832423
N          -0.35129290230180    1.56483662186171   -2.81771517054401
H           0.64808851260042    1.71033080070808   -2.92948681481019
H          -0.52741203496368    0.47262873647922   -2.84780589502519
H          -0.64644990794304    1.86600038266350   -1.82342292732901
H          -0.88168319010569    2.05152145867429   -3.53359849388726
