    26
        -50.46742647  Gyration_radius:  2.40221133716 Dipole_moment: 4.780
 S           0.78558698293122    0.14542022200535   -1.52553671780555
O           0.47499599487554   -0.31602471081841   -2.87639433241816
O           1.86894974574620    1.09311660990642   -1.42916878838244
O          -0.55152900228341    0.86648216941128   -1.10524781073454
O           0.95570343378186   -0.98196558291137   -0.60899239643968
O          -1.01128295937093   -0.38862292342710    2.33673701690605
H          -1.27845053612613   -0.64929691475695    3.21872754748869
O           2.33195700464463    1.74537961977541    1.04352613345577
H           2.22495986023535    1.47570045273162    0.09330252570024
H           2.98020882436226    2.45126161887650    1.04142981706898
O          -1.40678166520242   -1.85777976109065   -0.00177289112444
H          -1.56366967914646   -1.32589473762347    0.79690059085721
H          -0.44976693491488   -1.70155532808656   -0.19303299070318
O          -0.36491449350608    2.00829909448399    1.18004404889968
H          -0.69960892703709    1.26406100210241    1.71272691166823
H           0.60424413535017    2.02729836343441    1.29982780870199
H          -0.46455432247294    1.37619713279815   -0.23803474882691
O           1.55602465769396   -0.75505099979093    1.96782143263301
H          -0.03662222210221   -0.59789642308397    2.26720025100712
H           1.47044923480345   -1.00066883637652    1.02426989130752
H           2.00681786952128    0.10096363367795    1.94216050976678
N          -1.92146789475613   -1.00843868684189   -2.40863249247317
H          -1.84632410866120   -1.36803171092078   -1.39300543925068
H          -2.32025179749507   -1.70688379537511   -3.02815668201865
H          -2.46007482240174   -0.14695502554190   -2.42099913362977
H          -0.88459837846937   -0.74911450255785   -2.69570005164922
