    26
        -50.45656482  Gyration_radius:  2.59879150329 Dipole_moment: 7.468
 S          -0.47927680311951    0.90573033621690    0.07649578182665
O          -0.94901890344876    1.57939920264538    1.26688511908757
O          -1.54075659345352    0.37714672231021   -0.75544508171711
O           0.46430470455468    1.75686624157214   -0.68142538726633
O           0.43915495135208   -0.27454028835238    0.54287170493486
O           0.25624146923604   -2.88529558607566   -2.04935217990267
H           1.13395242241570   -3.21228924179479   -2.24968684387272
O          -3.09161919276990   -1.70014504274676   -0.14981147052089
H          -2.66812798510145   -0.83586976591116   -0.32412358420230
H          -3.39369153878925   -2.02136327037662   -1.00199823112089
O           0.64754197959658    2.75356530723157    2.91889001548814
H          -0.06428640409646    2.27653351523596    2.41139398055104
H           0.37343562502621    3.67231815945663    2.93816179169247
O          -0.62589367111669   -2.54096811257686    0.47103778854576
H          -0.03517458731092   -1.20206641990097    0.56398096024372
H          -1.59013251320672   -2.37259476860357    0.37781431767887
H          -0.32149969000326   -2.81919099847224   -0.42017918213604
O           0.19775199436549   -0.24379200329048   -2.63502645428454
H           0.79686989104544    0.46796558712983   -2.39121971657307
H           0.23493725115218   -1.95108187312627   -2.34500151007437
H          -0.59812280103946   -0.04781167310931   -2.10479755526995
N           2.21526882130872    1.67356655476755    1.11903799449542
H           1.52937585961093    1.82020379088192    0.25169581350006
H           2.12700235482867    0.67191266162717    1.30349749815656
H           3.17530117657155    1.95006859575920    0.94270425488376
H           1.76646217239553    2.20173238949652    1.92360016585859
