    26
        -50.45656482  Gyration_radius:  2.59904503732 Dipole_moment: 7.466
 S          -0.03395853403554   -0.31385249382783   -0.97760705855376
O          -1.21801793738322   -1.08315742343773   -0.65447505951344
O           0.95997013285406   -1.05444988418559   -1.72268478962972
O          -0.35514071690654    0.96777429855622   -1.64361460238314
O           0.64301365190547    0.16330881949424    0.35214923301936
O          -2.02147123409364    0.47493283873595    2.87774033639550
H          -1.92488892462988    1.29729323880764    3.35920174961943
O           3.14006456674051    0.02472528199326   -2.58297032214313
H           3.12336757147120   -0.07746926290138   -3.53634087340565
H           2.38535286789619   -0.53014441198171   -2.24497593328677
O          -1.33635439633747   -3.07632334888836    1.10637914203231
H          -1.29224686505372   -2.47854832293209    0.33344282503796
H          -2.26012766595591   -3.10473257967459    1.36424327926993
O          -2.40990515195213    1.07770569960290    0.26818983030122
H          -2.17889002511065    0.19096169043671   -0.06835702056742
H          -2.24185925921767    0.71913267045875    1.95447204635836
H          -1.92455285192730    1.66248081080491   -0.32126553992437
O           0.04902343990122   -1.17441079276148    2.38538903174982
H           0.43358338739447   -0.43747528696309    1.17742928983676
H          -0.69617835197960   -0.62455898138086    2.71196448929839
H          -0.36382011926768   -1.99865266634979    2.04330615142230
N           1.93391042485545    1.92134886706133   -1.23654565784799
H           2.56408512115754    1.31283105362792   -1.83680053945519
H           2.12349597621395    2.91341073648618   -1.33190982824196
H           0.89359406329725    1.62498041439343   -1.50848451882636
H           2.00795080015661    1.60288902479998   -0.26787568056862
