    26
        -50.45895652  Gyration_radius:  2.39200189112 Dipole_moment: 7.101
 S           0.36968646114068    1.41564455891834    0.60695157026947
O           0.14142364412452    0.90964322029278   -0.76481732249449
O          -0.91013060442055    1.69334494479623    1.23411174989606
O           1.04960572936875    0.23527480032832    1.38064746998084
O           1.33012495437980    2.48510629420287    0.63274891290544
O          -1.45398737464978   -1.45503196093771   -1.48453582804485
H          -2.24586748507904   -1.96834740482585   -1.65522743209074
O           3.38580593219512    1.13261215551178   -0.26572124116159
H           3.81728655924488    1.76378101189219   -0.84513529441512
H           2.65876277205547    1.63947537958099    0.17596729166234
O          -2.20258999755912   -0.50999300204747    2.10952273627941
H          -2.98847496427687   -0.39694055741051    1.56841933141966
H          -1.71557706757287    0.33164377777715    2.01792761522339
O          -0.28558521827688   -1.90796427655992    0.87406493883752
H           0.51875001402462   -0.60605913950592    1.26036568371386
H          -1.01938155202951   -1.65855525262464    1.47494133092151
H          -0.67061669970602   -1.81635101441550   -0.02780679203454
O          -2.62135869555609    0.83112786390737   -0.62539230077117
H          -2.00788790582193    1.18851124047874    0.05335096530417
H          -2.59011939394319    1.46588492428765   -1.34286328703105
H          -1.76668780975467   -0.55403991894408   -1.23767774761973
N           1.86330764881895   -0.88902696652749   -1.04694684371178
H           1.66797677823005   -1.59350709282686   -0.33715400051868
H           2.65917343424956   -0.26358299688051   -0.75538257356157
H           1.99805047784816   -1.31093412357183   -1.95937508963351
H           1.01831033281119   -0.16171646533417   -1.04098383339334
