    26
        -50.46218800  Gyration_radius:  2.39327117364 Dipole_moment: 7.366
 S          -1.50372709451093   -0.03478900405349   -0.26357787214660
O          -0.58680747676285   -0.43677299598918    0.81652364698372
O          -2.11026752190627    1.23816142781497   -0.00809133189845
O          -0.61905903401306    0.02574658342949   -1.55222661402616
O          -2.44869911732782   -1.11548465499229   -0.56336301612506
O           2.32902247156782    0.35960788564212    1.45100357522059
H           2.08732938303882   -0.56126179028954    1.57790073154043
O          -0.18191829684071    3.09474921510052    0.27352856919127
H          -1.00218659453070    2.60528231478734    0.07500781240418
H           0.01726643354169    2.85797907104569    1.19233459261678
O           1.16595100607548   -1.92106616355113   -0.35356707029386
H           0.53820398116712   -1.37668819634168    0.19431314953898
H           1.73265140080522   -1.28514005206852   -0.80101063567117
O           1.41723712052244    1.36339253527680   -0.90118617774962
H           0.20918761960458    0.59589444144614   -1.34425772619795
H           0.94957665275923    2.17575170560853   -0.58137499217329
H           1.85418665794654    1.00355710067304   -0.09898804831096
O           0.01569040021771    1.47321282285183    2.53481914511289
H           1.72807846943889    0.87170538187679    2.01256917600971
H          -0.67081398940706    1.58404087735147    3.19340092619025
H          -0.30399972864458    0.77306805416052    1.92096854080138
N          -0.91700061694859   -2.69625787099632   -1.77837179486003
H          -1.66834563096912   -2.04715615222504   -1.24112083356944
H          -0.85980453532294   -2.36444099084583   -2.73678721215073
H           0.00306189661234   -2.50582298116888   -1.27695197217938
H          -1.17481384613819   -3.67726858454169   -1.74149457824951
