    26
        -50.44930410  Gyration_radius:  2.54953392598 Dipole_moment: 3.603
 S          -0.90941810903399    0.21737718937121   -1.40005421804346
O          -1.47624306669782    0.50803693036184   -2.81553027218824
O          -1.93586799693450    0.67906209575374   -0.45469137463913
O          -0.65542395644878   -1.20255065565186   -1.27115978993350
O           0.31812757500237    1.00119127952877   -1.24575031339671
O          -1.44924629520444   -0.63993527111927    2.87275796521903
H          -2.34410104965471   -0.97827017695400    2.80404653029665
O           1.18981525746691    1.74166914464554    1.00542672982335
H           1.62832795069577    2.58153138411731    0.85746349707984
H           0.89616169160878    1.42363832713358    0.08885684969867
O           2.30212964054692   -0.69352211534155    1.74873242353366
H           2.37101756442133   -0.68542866522264    2.70524573263866
H           2.01907381160294    0.19577014278918    1.47957934098834
O          -1.28457629694756    1.57955981829899    1.73035702575439
H          -0.29953557757068    1.73597887007579    1.59036427344199
H          -1.62875454021969    1.26091363230282    0.75257203952716
H          -1.37149822147490    0.69030755546441    2.29648407642996
O          -0.05487262670247   -1.97600827350788    1.19510291154771
H           0.87048088183423   -1.68169205848307    1.28895927624540
H          -0.89142062886681   -1.21435758524521    2.24630964194835
H          -0.31202154617141   -1.77265099188246    0.27041915454692
N           0.71881343771870   -0.60853210652505   -3.67103839801752
H           1.16022446730519   -1.06695615629762   -4.45851304274666
H          -0.75262980289137    0.15112792592761   -3.39503495201057
H           0.51923637829406   -1.29858778823662   -2.95245807558438
H           1.37220105831694    0.05232753869102   -3.26844705215468
