    26
        -50.46255570  Gyration_radius:  2.40921185858 Dipole_moment: 7.228
 S           0.01211678497795    1.14369997208642   -1.43847671268328
O           0.98785757837165    0.17694568206857   -0.90984869785625
O           0.59378430258024    2.36993710933963   -1.88340867285715
O          -0.85121513070301    0.47189609196530   -2.41656889546996
O          -0.92598560908486    1.51658217677669   -0.22487317319779
O           0.59006039423666    1.58713128205446    2.69351751897027
H           1.09640095810093    1.98597392814643    3.40237493301346
O           0.60219942087809   -0.80667906018516    1.50895350933744
H           0.64876415962561   -0.04414196170803    2.12260198093490
H           0.84636230334000   -0.41606380523059    0.63930370038410
O           1.08395768480856   -2.46781106741328   -0.98719596062325
H           1.23333920464711   -2.60708409944024   -0.04680149913327
H           1.26122265436121   -1.51260751608449   -1.12897474940249
O           1.81654985070247    2.48721796689389    0.47182441636094
H           2.40525116290797    1.76110844209585    0.24928179793775
H           1.31660913859994    2.64651277734764   -0.35096022610087
H           0.90192720064808    2.02023145915241    1.86707680778133
O          -1.89929947247003   -0.74045054853855    0.93420696824530
H          -1.34966889784606    0.71555130347711    0.13865269208329
H          -0.95058674860578   -0.86888617522023    1.25778655395597
H          -2.40243916403885   -0.43925963583313    1.69215191187367
N          -1.42809711472798   -1.82861988171294   -1.52070277768508
H          -1.87939528871045   -1.63067613410522   -0.61749383885345
H          -0.48396881113306   -2.27356229125182   -1.34653385102973
H          -2.01505425917398   -2.39703988622362   -2.12066013742854
H          -1.21069231231984   -0.84990611850160   -1.98523360862354
