    26
        -50.45234028  Gyration_radius:  2.54399026646 Dipole_moment: 2.493
 S          -1.38481391660800   -0.76337331395735   -0.21548064110973
O          -1.24442417091709   -0.53707731382321    1.21466088072249
O          -0.39435003141523   -1.68038453876700   -0.73839131655921
O          -2.78360875796081   -1.37198289023503   -0.49074969396354
O          -1.33754382295678    0.52968244518373   -0.93618134715587
O           1.70495491881389    2.08220158594104    0.68055971559391
H           1.16950643850784    2.72152654788480    1.15245965530463
O           2.72881122209887   -0.35486575270879   -1.85099716129620
H           2.51220221841784   -1.07343978307039   -1.21388558594037
H           3.50872819181140    0.08725132043775   -1.50780116777242
O           2.01470863100659   -2.12661798564956    0.01503735236993
H           2.18947777948307   -3.06644190512597   -0.05487407638744
H           1.06009920177836   -2.00962952747789   -0.24417954936724
O           0.85190614172714    1.38513083678961   -1.60817999296312
H           1.19383415456289    1.76249820921288   -0.71369084794509
H           1.50386439227098    0.63737865461835   -1.83229456448918
H          -0.13757425620517    0.96844044249707   -1.37409856543353
O           1.28845131868213   -0.17132463857505    1.87497572096330
H           0.32502920061549   -0.31937776756280    1.74498928598637
H           1.72185028736306   -0.90605793355995    1.41764874759191
H           1.61431159679481    1.21944547980396    1.18964432162296
N          -3.74496355947666    0.70109758273948    0.76110452656581
H          -3.49869870680310    1.45215747569980    0.12897801186150
H          -3.38564961096639   -0.69064428661291   -0.08724577650261
H          -2.94297848535939    0.53309320913555    1.36246394873272
H          -4.53313036528727    0.99131382718362    1.32552811958809
