    26
        -50.46255568  Gyration_radius:  2.40926433548 Dipole_moment: 7.229
 S           0.42999794435735    1.67681068105323    0.61733112473559
O          -0.28301127888201    1.19275112145442   -0.57576073722602
O           1.85944788093711    1.79871257674560    0.30872522315344
O          -0.16167480107674    2.82943448990042    1.21845226766509
O           0.32014387480811    0.51867576863179    1.68442540503712
O          -2.50556412448219   -1.16286785913369    1.57957233106222
H          -3.42323511478565   -1.33898759480448    1.79128250388488
O          -1.04400595926944   -1.33354360324740   -0.64938949497659
H          -0.86198432751036   -0.36640673131562   -0.64833169600148
H          -1.68175055367929   -1.44639889963349    0.08601523910410
O           0.56749864408270    0.06102395103896   -2.81327885437607
H           0.19734652812279    0.68798364558160   -2.15469842132793
H          -0.03388016977563   -0.69012379917642   -2.80048617012233
O          -2.46119453191754    1.50011420638606    1.18326263812923
H          -2.41317612196852   -0.18350181146404    1.58938786429713
H          -1.66979522819258    2.02892199715135    1.39848958440662
H          -2.53494695963906    1.57038353956479    0.22773513992774
O           1.14222287458952   -1.83384010090821    0.60059694831756
H           0.69805438404558   -0.30915358263014    1.33058232617467
H           0.98906299799608   -2.49285858536960    1.27927377437306
H           0.28720784569917   -1.77594564542997    0.06493072749666
N           2.54746225140815   -0.20910349322728   -1.07797632813918
H           2.30669138614689   -1.01069381411214   -0.47952282754331
H           3.51935875699457   -0.22973234983475   -1.36530311926636
H           1.88649801336318   -0.18183819157453   -1.90377587189502
H           2.32322575860753    0.70018412403491   -0.49153959675804
