    26
        -50.45491428  Gyration_radius:  2.43194827181 Dipole_moment: 6.961
 S           0.73947268654070   -0.29474357767470   -1.77112036928921
O          -0.70649390830094   -0.67461132915298   -1.75103587211482
O           1.41014522977213   -0.73705769513015   -2.94135069624395
O           0.70104993695886    1.27966618099834   -1.75087964064786
O           1.35341019981563   -0.69817277511446   -0.50773158221133
O          -1.03790800255407    0.47743663876034    2.08006877502265
H          -1.47277793114117    0.41750224382288    2.93083484456555
O           3.20023644503814    0.87793771760312    0.55062588741817
H           2.63380809296169    0.16329029085761    0.18868365088889
H           3.84428659903521    1.07704659201315   -0.13036360420106
O          -1.70371135109417   -2.74727907510888   -0.40807379761726
H          -1.47291236652769   -3.57409347388773   -0.83405725365421
H          -1.37007126567822   -2.03717984914978   -0.99547099002198
O           0.82350533806247    2.08570329859556    0.71977641120858
H           0.79209336469122    1.57849760956894   -0.80525289318921
H           0.32976270014073    1.54610875457554    1.35626672892602
H           1.76372841599685    1.83644509846717    0.84268499587398
O          -0.02152803080807   -1.77782054681855    1.47987148417699
H          -0.69869162802559   -2.26271063565892    0.96756748060410
H           0.62028335333487   -1.47063560146786    0.80478443730913
H          -0.62013540395994   -0.43773214108598    1.90860428052934
N          -1.84753718546902    1.09635951779212   -0.37925142187623
H          -1.37371118511666    0.28980082013537   -1.01091795460172
H          -2.84381791700248    1.14961544357209   -0.56571055930773
H          -1.65951414853990    0.86342973149422    0.63063042182681
H          -1.38297202812837    1.97319678199584   -0.60918277337197
