    26
        -50.45891852  Gyration_radius:  2.68241035029 Dipole_moment: 5.210
 S          -0.33643888049791    0.78953579416431   -0.65807685276068
O           0.68251476202403    1.50957052748136   -1.42105273385357
O           0.45743181981238    0.22544203529323    0.59763575969373
O          -1.39003011128002    1.63566439367350   -0.16696665867744
O          -0.82559255612732   -0.38343824467400   -1.37587909429620
O          -3.21559973127199   -0.29178247953950    2.59767726526217
H          -3.04563706509340   -0.53089618803859    3.51029231790259
O           0.82419596971796   -2.00254436661836   -2.54477244814773
H           0.43418410979505   -2.20512562302817   -3.39644566948989
H           0.14588554862998   -1.45714163574912   -2.06399128387758
O           3.11658289164208   -0.30063497917753    0.68281203531942
H           2.15184700475642   -0.19148596261396    0.79599451539989
H           3.52521478346640    0.38891747981418    1.20902333900901
O          -2.24672768474556    2.16922494296517    2.24800120560857
H          -1.84675210494467    1.99413998458598    1.36510126447688
H          -2.90782141898853    2.84609937061561    2.09152435418024
H          -2.90894841266895    0.64058072150824    2.49796438216931
O          -1.37855461358705   -1.44909546264370    1.04601069899300
H          -2.12303622133141   -1.07455766464989    1.57633466140187
H          -1.60330719389008   -1.32889331974647    0.11228900537562
H          -0.20131304867794   -0.46414873774986    0.93409270110125
N           2.57432222764670   -0.11016944913275   -1.94720542318861
H           3.00341516670047   -0.28476350360424   -1.01390795443464
H           2.05544915996351   -0.96599081179437   -2.26974165680219
H           1.79897992039211    0.64283490383023   -1.77950820086658
H           3.25973568855796    0.19865827481737   -2.62720554948070
