    26
        -50.45891842  Gyration_radius:  2.68203266645 Dipole_moment: 5.205
 S           0.33376013219518   -0.24703346580389   -1.00067915054676
O          -0.66184637906752   -0.23182192507368   -2.03783698916529
O           1.62932530636713    0.28029853482371   -1.42764192763818
O          -0.13239451231532    0.76339414219980    0.13378574737464
O           0.46421126068300   -1.54453465261477   -0.34487983149567
O          -4.07994120707646   -0.62809516704013   -0.34269241579773
H          -4.67164271036547   -0.07512264685709    0.17016247644350
O           2.30118213985471   -1.94830047811226    1.43595876083765
H           1.53681015377647   -1.83834553495710    0.80956868322476
H           2.67028237292147   -2.81115568026304    1.24186118883749
O           1.50568276009613    2.28066283934100    1.67297779307631
H           0.79653541695029    1.77987407679749    1.22366575870219
H           1.43120524885404    3.18407627255095    1.36051983966666
O          -1.79502256890561   -0.92638271849427    1.00307149615125
H          -0.86725706368953    0.22185267916501    0.56924869674904
H          -2.65427924452720   -0.90939717875104    0.51599467971018
H          -1.23177471436265   -1.58186391329610    0.56721985491548
O          -3.00134757868230    0.92749057883458   -2.22261766468092
H          -2.08791419098533    0.56879376809147   -2.13856191967965
H          -3.26765659175919    0.72164310002742   -3.12060448613962
H          -3.73519823194709   -0.05798950912223   -1.07028279617291
N           3.14132343052487    0.42260164332259    0.61505954118793
H           2.56451066824308    0.37667140626491   -0.31310415735610
H           2.70730904964109    1.18407413382991    1.17860314577271
H           2.97924746339227   -0.50603368249011    1.08093575890146
H           4.12488959017720    0.59464337762504    0.44026790711646
