    26
        -50.45891855  Gyration_radius:  2.68218007806 Dipole_moment: 5.207
 S          -0.52203360328737    0.91185925470083   -0.26074230676148
O           0.23307134424991    1.90878542249718   -0.97004197388772
O           0.49908471775113    0.05442738233222    0.60383144392529
O          -1.43780375169784    1.47087853533737    0.73302425809389
O          -1.19087246770532   -0.04057878352309   -1.14162504829395
O           3.19719215243872    0.13300501523707   -2.63201269840836
H           4.03599875698374   -0.23562857514790   -2.35016498877136
O          -2.77855703158399   -1.84529978620493   -0.17657009777234
H          -3.53872043563288   -1.86557865286115   -0.75982986918533
H          -2.13302305332682   -1.21982730244328   -0.60188851714134
O          -0.01337010484989   -1.04321086237049    3.03029119524290
H           0.45369104899098   -0.51812044630066    3.68260727741494
H           0.30858595311163   -0.74016554534093    2.15848373845158
O           1.22137404125287   -1.21925528702931   -1.45328005560056
H           0.36610631841362   -0.95122284318808   -1.81862561355508
H           1.92016880270945   -0.75218603096457   -1.97222141690536
H           0.92382674374143   -0.50794220018571   -0.12148951590121
O           2.80343200046793    2.34763377428176   -1.19743277856150
H           3.09262485785466    0.98158629787162   -2.13986761222709
H           2.83373504945004    3.16511755931238   -1.69794740675595
H           1.84656706535207    2.18784827407885   -1.02717869173947
N          -2.45140873872295   -0.45623480598577    2.05147699248831
H          -3.24125707540297   -0.23275791120528    2.64626872410663
H          -2.07743393565475    0.42521543657108    1.52286876413750
H          -1.64283464094828   -0.82019883826345    2.59877879372620
H          -2.70814401394110   -1.13814905120014    1.29328739387810
