    26
        -50.46195505  Gyration_radius:  2.47316362632 Dipole_moment: 4.188
 S          -0.35662451623248    0.59362840037909   -0.66190837206755
O           0.17589178914020    1.95616515829916   -1.17457558177349
O           0.81093399737869   -0.12314774161262   -0.10716396754505
O          -1.29761780039352    0.89395358667921    0.40368996598457
O          -0.93848672410779   -0.13491863124691   -1.76963975257551
O          -1.42013057332031   -2.46408607903206   -0.60210222940361
H          -2.04809151853792   -2.93597616287670   -1.15215947655711
H          -1.20415053857736   -1.63759848591237   -1.08336827295385
O           0.55060765591502   -0.73784031541070    2.30831790277732
H           0.39194409455444    0.26684266025767    2.64338430686925
H           0.78302621251274   -0.57820339518909    1.31889823992565
O           2.54592616284468   -0.59521929178884   -2.07288629767469
H           3.40956756726751   -0.38027117368153   -1.71726387490267
H           1.91678290873379   -0.53518056685481   -1.32491735437436
O           0.85349161357602    0.98111569129661   -3.43963467551549
H           1.61147184742198    0.42008202670121   -3.17568777767979
H           0.07558820101832    0.41611972286915   -3.31890550563070
H           0.50394551046196    1.74886094436266   -2.10136353923959
O          -1.81660608729993   -1.33106418326383    1.76756383211404
H          -0.42647275060762   -1.12498251536099    2.22355637231451
H          -1.90328543471544   -0.46135487481912    1.32497134682005
H          -1.74765510736595   -1.96157230902572    1.01736981171850
N          -0.01266216654068    1.69265169800606    2.72324812702979
H          -0.56348693307750    1.68340108130135    1.85664783450678
H           0.72236031419138    2.38078238998479    2.62677190567414
H          -0.61626772424239    1.96781234592125    3.48715702215765
