    26
        -50.46259458  Gyration_radius:  2.42208940771 Dipole_moment: 8.962
 S          -0.94430122304501   -1.07536013894084   -1.27212687116556
O          -1.93184379817619   -1.67561117223606   -0.39550855252172
O          -1.10672124033305   -1.28269631859337   -2.67544660975508
O          -1.06461621498677    0.46857067137169   -0.95580070649678
O           0.42854249571543   -1.44442901171499   -0.81858888348886
O           1.39766319157301    1.65468168939481    1.22763372500674
H           1.82112697860001    2.40523709847326    1.64596913090948
O           1.55526045888678   -0.61215179483436   -3.06258592954862
H           0.77546962554973   -0.73052146926570   -3.61760602539598
H           1.32093900469048   -1.10455226924683   -2.25430159421979
O          -1.83427971939000   -0.82229179774463    2.00247857495155
H          -1.92195611282159   -1.12436260407589    1.04240102131070
H          -2.53064763745710   -1.28074925163347    2.47488819766982
O           1.09215827772511    1.61504711350222   -1.71246351951008
H           1.56506600500772    1.56978553943326   -0.87214792876201
H           1.44388966460683    0.89978590809201   -2.29691692963763
H          -0.27351926874661    0.94990752175147   -1.35252582026088
O          -1.22594984245385    1.81905363418550    1.39641045342494
H           0.41781410971528    1.83074647907879    1.26932234214173
H          -1.41341394517810    1.65237511588828    0.46004460128150
H          -1.55260460784401    1.01943398335059    1.83880601862157
N           0.81623538951205   -0.95310991849435    1.62469087346798
H           1.20716817081453    0.00950765255545    1.62486971153265
H           0.67905499795038   -1.22650848365247    0.55834193333395
H           1.42443391146855   -1.61159800113737    2.09707028771164
H          -0.14496866138194   -0.95019018550568    2.02309248939890
