    26
        -50.45365680  Gyration_radius:  2.50883240958 Dipole_moment: 4.122
 S          -0.21919624392916   -0.04551964281098   -1.16566489084273
O          -1.32416320089241   -0.26032583418100   -2.23146604939044
O           0.99266060399215    0.41172592879866   -1.82860794050565
O          -0.68172266262313    0.91377814482642   -0.17957820935183
O          -0.01395156796078   -1.36890240920136   -0.54766903017711
O           0.69729530337830   -0.11439461437144    3.02408021048850
H           0.97470074203628    0.80432454497896    3.00516987918121
O           2.96929502638578    0.50951714780149   -0.18655347524115
H           2.21871580590179    0.57277851501803   -0.84460961981524
H           3.74575154726816    0.27544034010213   -0.69960557146348
O          -2.06803043884047   -2.37711290477489    0.85756053161713
H          -1.81212327217032   -3.26932004125149    1.09672894319345
H          -1.40060507009968   -2.06080997285472    0.21899470465965
O          -1.67853187512061    0.00991889179610    2.10787114555276
H          -2.00444111504585   -0.86841063074765    1.83930302445691
H          -0.28814327263964   -0.10581635636775    2.75655564839731
H          -1.42710628339148    0.44590310784823    1.26632182345855
O           1.81834046274225   -1.31330648289874    1.14917261343302
H           1.05034149356650   -1.44206942137946    0.46014471345852
H           2.40669920010504   -0.60109433482811    0.69863126008774
H           1.36345833787134   -0.84169598918168    2.00101448796969
N          -1.09933929112274    2.29761753770457   -2.63298906361588
H          -1.07824713102120    2.35920036091406   -1.61951732697732
H          -1.44080443507043    0.65977018642217   -2.59017444522918
H          -1.56405302488761    3.11545494193054   -3.00731672747669
H          -0.13679965841526    2.29334898671471   -2.94779662587309
