    26
        -50.45365651  Gyration_radius:  2.50852163792 Dipole_moment: 4.124
 S           0.31647207610166   -0.77333180598712   -0.84272353179392
O          -0.21245351336716   -1.85951167715475   -1.81415005860410
O           0.21120696120305   -1.37096453633953    0.50161193933817
O           1.70262420912491   -0.47967158069428   -1.17334691718670
O          -0.51791457146232    0.41002170307469   -0.94352592679340
O          -0.70788924434635    1.86197026039302    2.38231338078712
H          -0.43884228765134    2.63097713868658    1.87475619421889
O           2.75416354781438    1.09567352090158    0.56631966478775
H           3.67426608223972    0.83157909040805    0.63405865091718
H           2.37137087754913    0.55432671277189   -0.18246104973473
O          -2.26508244735959   -1.88920492395561    1.40159621269922
H          -2.15170272411678   -2.35870332635258    2.22951984402028
H          -1.38062739299696   -1.83603527797941    0.99161331949441
O          -2.43471510344277    0.77253159925516    0.85558890486716
H          -2.62007825086113   -0.14599751320697    1.12366504028796
H          -1.47428285155203    1.44253539753317    1.85373037263773
H          -1.83176077490005    0.68649007903680    0.08708277452796
O           1.11001384985308    0.16249954448288    2.25690180950631
H           1.84520138651361    0.60696615104735    1.69273466392410
H           0.33193304969395    0.89397887343548    2.37955049607949
H           0.72230197735502   -0.54817515250818    1.60470252177534
N           0.20167468802474   -0.07317697058266   -3.65632187436860
H          -0.14662975452516   -1.39580280529533   -2.69135057100151
H          -0.22090798330498    0.56986512009251   -2.99350201049328
H           1.20500449016503    0.00203158789535   -3.54115920842669
H          -0.04334628577469    0.20912876104784   -4.59720465147949
