    26
        -50.45558037  Gyration_radius:  2.44436251866 Dipole_moment: 2.118
 S           0.17084556601932    0.93816470749661   -1.03464478640573
O           0.58665120565684   -0.32415756159469   -0.39798108810199
O           1.05266854987654    2.01334716924272   -0.57805329367194
O           0.41210131516457    0.76628706248589   -2.55283659973630
O          -1.22881573763997    1.21445182696843   -0.80174432461083
O          -0.03570143895657    0.69022141734635    2.96660585837004
H          -0.46776470763747    1.35799259568090    3.50253406861711
O           2.97124607444918   -0.49885660894011    0.60920552073692
H           3.58852868179200   -0.28302097097923   -0.09268010247045
H           2.08052504431327   -0.57771196192648    0.17998191910596
O          -1.09632795755819   -2.31697289095802   -0.09173861385499
H          -0.43555504680410   -1.60227012761112   -0.23658908234739
H          -0.63308514632451   -3.01379288557073    0.37604580412017
O          -1.92707613417788   -0.08508854099145    1.38473866411247
H          -1.77683141164620    0.48392497615714    0.59988381843326
H          -1.84134833096310   -0.98985934415492    1.04337076691786
H          -0.75037078665526    0.32722638419272    2.35694729916186
O           1.94909462027448    1.57147352556458    1.68074376550849
H           1.13888949702540    1.21646774514965    2.23541570818438
H           2.49508258934696    0.74516579753517    1.42534157749057
H           1.55722093613090    1.86702290976694    0.73544790985041
N          -1.63522748700418   -0.80615183165059   -2.71203870373712
H          -2.12309608715142   -0.12918179526516   -2.13268402368949
H          -1.52239673969337   -1.64558895290529   -2.15337282809514
H          -2.21015319583709   -1.02870373728368   -3.51461235957248
H          -0.31910389205805    0.10961109219731   -2.79728686430430
