    26
        -50.45558057  Gyration_radius:  2.44441299259 Dipole_moment: 2.117
 S          -0.38147111383765    1.29277584872949   -0.40199329811781
O           0.06017716922909    2.69497466932095    0.07873319401686
O           0.69364569076965    0.36001745415724   -0.02047188944989
O          -1.63487957649258    0.94473207879679    0.22831205957218
O          -0.46797173713846    1.34626611847255   -1.86209908935489
O          -0.77360747546482   -2.55927800026637   -1.45917203799797
H          -1.58839895523857   -2.91328649384717   -1.82063399310543
O           0.70453861367856   -0.81862787462480    2.32604597531253
H           0.74669244835696   -0.35464933939151    1.45917532605317
H           1.46274628892747   -1.40472580052006    2.34885682357715
O           2.49406029146403   -0.27150414872113   -1.77849279215739
H           2.88597397802562    0.54830113754309   -2.08593138602858
H           1.92113948346923   -0.03201236273737   -1.00505031049580
O          -1.52445592317328   -1.62072839517678    0.82919925593532
H          -1.01001391117167   -2.21611790163912   -0.54238103880259
H          -0.83391723205590   -1.57586106402310    1.51004319421368
H          -1.70642612347494   -0.68238959929611    0.60808584289429
O           0.26593545993612   -0.76962092073768   -2.90375459655262
H           1.24147135402146   -0.71067235128768   -2.60198114575293
H          -0.16457246741614   -1.52623812711915   -2.32741021130378
H          -0.12636992901679    0.14869819843405   -2.53278123756425
N          -0.43366544266639    2.02575857500760    2.52755396681750
H          -0.63995613983614    2.61586680212005    3.32343796497418
H          -1.29953007736846    1.62397368431620    2.18002487653623
H          -0.03642037979106    2.60102914434179    1.08255728663863
H           0.14527571630987    1.25331865818028    2.84012727010675
