    26
        -50.45558033  Gyration_radius:  2.44428319772 Dipole_moment: 2.118
 S          -0.93662435877242    0.78172975627773    0.70162470800948
O          -1.14529022542462    2.31192059091736    0.78735338450238
O           0.45650441707320    0.57140195230410    0.26954005796520
O          -1.09918473748293    0.24922721450200    2.05525559165345
O          -1.87612982283940    0.22373461700567   -0.24459246670783
O           0.38979466481230   -2.99510305658764    0.39439891192755
H          -0.19459061442831   -3.75312128136470    0.45585224425280
O           1.09400860454997    0.45238465812200   -2.27531359181397
H           2.03368633836749    0.26992554796053   -2.32703954220508
H           0.88738548502196    0.53920865347258   -1.31709844219866
O           2.27309597241709    0.11611252280422    2.06489630425237
H           2.24310516021119    0.84671407667090    2.68580710594822
H           1.68660105910966    0.37236169093178    1.30716027038599
O          -0.60801426444083   -1.66254212854995   -1.58275943363358
H           0.06183768451870   -2.46269241131779   -0.39505378564345
H          -1.19848101733741   -1.03025105204606   -1.12024762269249
H           0.01827219943257   -1.09703119590296   -2.06287122947165
O           0.45871702439330   -1.61391660819205    2.50556566423082
H          -0.28674620736226   -0.86517188183938    2.37076108681583
H           0.43643098603389   -2.20706528338262    1.64642761205662
H           1.31642515063344   -1.06060718416054    2.43977962640219
N          -1.17951152537986    2.46242945222944   -1.79453811854311
H          -1.14431587878258    2.56785339004296   -0.19244936394864
H          -0.30443474362762    2.16204097287847   -2.21103815922233
H          -1.78997988489736    1.65076379256417   -1.77241945826940
H          -1.59256146578865    3.16969318469178   -2.38900135404511
