    26
        -50.46336475  Gyration_radius:  2.46269508298 Dipole_moment: 4.769
 S          -0.51988949542271    1.28405813595280   -0.39971104367103
O          -1.86732200243531    1.62589419798179   -0.76419731423933
O          -0.11459489011170   -0.01291798318171   -0.95133434032283
O           0.44348553759747    2.35945692874324   -1.00097019528615
O          -0.30787194607716    1.28723027156326    1.05461896289920
O           0.60128312791446   -2.31828227965890    2.03691568052849
H           0.92037543431569   -2.68635941960905    2.86238555122960
O          -2.73248649192962   -0.87666123189255   -0.64276956688457
H          -2.04060778481029   -1.24954018355033   -1.19939363651732
H          -2.63407000641612    0.09382202807450   -0.75944638789126
O           0.76576347882803    0.68184846232054   -3.44700811882100
H           0.32645892040369    1.50908405532451   -3.65093808851424
H           0.31578840910722    0.32600227438059   -2.66411646481264
O           2.43175860054267    0.58891723915539   -1.06114922662175
H           1.59404222852392    0.08162221631359   -1.01203244481499
H           2.66915330146061    0.57415997392409   -1.99490837630345
H           1.33415844250515    1.94446249831928   -0.99651147645419
O           1.92631229157890   -0.05998126416804    1.67325148862616
H           1.18630820309506   -1.54182799696342    1.84178235660884
H           2.49715125510080    0.06645771667769    0.90751929660278
H           1.16240728422917    0.53399556817901    1.52882696728520
N          -1.61036577888420   -0.85933032153993    1.75255451724177
H          -2.14466090998038   -1.02700018173054    0.85041862142757
H          -0.84293422347785   -1.57091669728952    1.88052255476570
H          -1.12582480883478    0.07475940738525    1.60337289886677
H          -2.23381817682708   -0.82895341471308    2.55231779507191
