    26
        -50.46336469  Gyration_radius:  2.46259360752 Dipole_moment: 4.768
 S           0.80763386202954   -1.02995796381410   -0.60422786596735
O           1.44397941590428   -2.14382473057412    0.29052208975568
O           1.51967658766998   -0.98664445372551   -1.85178467303904
O          -0.61051691208957   -1.37689208965361   -0.77280916380119
O           0.91920401609045    0.23169890910573    0.13500035564748
O          -2.63128410501764    1.66420347001051    0.43591533548137
H          -3.57046378036831    1.77701056380539    0.59062592470430
O           0.95897275828450    1.56530192368636   -2.29738990277130
H           1.24732047269890    1.88398529110813   -1.43549915227093
H           1.29180736390577    0.64164781717916   -2.33259020766515
O           3.26945882273603   -0.11279297128635    1.49257660925466
H           3.76104181783822   -0.76405953995320    0.98948849747438
H           2.53369258505688    0.16481128290863    0.92372068522920
O          -1.99924763388159   -0.70633611457520    1.42080046839345
H          -1.55451728446015   -1.07650811702531    0.63188885071007
H          -1.36300736574670   -0.79541082091754    2.13873911663558
H          -2.37480972180866    0.83526784850360    0.91575598701585
O           0.64270282763410   -0.87672450553214    2.49145204606188
H           0.64398541458965   -0.21970337189543    1.76350932504364
H           1.15011363537290   -1.94337375699117    1.20646027228852
H           1.47199144053828   -0.72329815963871    2.95748081605595
N          -1.53528919550328    0.81367241792210   -1.83936487619791
H          -1.99467210788470    1.29879440194241   -1.02376639912139
H          -2.15338693901833    0.75746583863656   -2.64185945094455
H          -0.61263285103059    1.27478846617305   -2.09186044328539
H          -1.26175311351477   -0.15312162540350   -1.49278426466294
