    26
        -50.46243675  Gyration_radius:  2.53523459138 Dipole_moment: 5.576
 S           0.24974070092981    0.33677255088936    1.04218246161226
O           0.75434942864134    0.16201950504280   -0.33860207487213
O          -0.04099171822136    1.73511210671888    1.29793590523583
O          -0.88360712611787   -0.52940959433951    1.28838825561040
O           1.38225257016511   -0.14425202373120    1.99122629398894
O          -1.53030546937556    1.19850659820271   -1.01268366252108
H          -1.61479996198480    1.68357321989710   -0.18325156326438
H          -0.61906278073684    0.83003828619467   -0.95284047662081
O           0.89625423419194   -2.31280909825838   -1.19500233638291
H           0.88866961076063   -1.36215613684935   -0.92847598936990
H           1.68190236312897   -2.68777188637976   -0.79378496464022
O           1.87474723612398    2.71864608887648   -0.21004940344993
H           1.84035743837124    2.00607008394703   -0.85682499757811
H           1.08573099013393    2.56236738862003    0.35374148534226
O           3.26658612796499    1.63619785569405    1.74845711304248
H           3.18381837128042    2.23512144323455    2.49360298784695
H           2.15157887229527    0.48610071221267    1.91172342619599
H           2.90654605427244    2.12474412635325    0.96411898512272
O          -1.44113234693650   -2.66970854360896   -0.02082807162614
H          -2.26729815971259   -1.83399757048147   -0.80366741626250
H          -0.59401086355576   -2.74763600696174   -0.52288118891395
H          -1.23361985985047   -1.97878195849467    0.66161147410914
N          -2.86842925436260   -1.05361198119867   -1.36868719206748
H          -2.87257529301678   -1.25459645743822   -2.36353837455687
H          -2.38066383458802   -0.12039515305766   -1.19432700672497
H          -3.81603731980561   -1.02014354508490   -1.00754364925978
