    26
        -50.46742655  Gyration_radius:  2.40214183279 Dipole_moment: 4.775
 S           1.01481192867525   -0.63835494167323   -1.23438867281172
O           0.23781889744514   -1.45171472820852   -0.29926340722956
O           2.39694880118098   -0.52358718797000   -0.83737537978453
O           0.79292386261459   -1.06448461372287   -2.61407627441201
O           0.36764312310150    0.79887251969046   -1.22267075413059
O          -1.51418083231267    0.73541777681474    1.94803014894787
H          -2.07190931261870    0.85453831949396    2.71743558721347
O           2.60767782868217    0.16946692755266    1.65844963203721
H           3.53494336917573    0.33201251756755    1.83807549699729
H           2.56824506394524   -0.15389974279112    0.71985956607220
O          -2.21333927517387   -0.61439039963493   -0.39207191107352
H          -1.35640266080402   -1.09814774458649   -0.30049529016955
H          -2.17446726844772    0.04436926467114    0.32198062407109
O           0.72109400820481    2.00811693006903    1.00774408887017
H          -0.11176872639741    1.72563531832574    1.42755603214124
H           1.43287801906065    1.46800679840605    1.40204889479437
H           0.56212818045733    1.30799510502696   -0.37278705553673
O           0.26214932709155   -1.14948580721481    2.33918000726730
H          -0.89937674068502   -0.02221439916191    2.16390589383713
H           0.25247185835552   -1.46731863157365    1.41354310761527
H           1.13979955716082   -0.75332854757477    2.43680540237117
N          -1.53984559287512   -0.09419947937057   -2.85279860470327
H          -1.93135770629185   -0.23021378686252   -1.85544082298516
H          -2.13716061379156   -0.51959921716229   -3.55487888779362
H          -1.40519587964396    0.89753434943351   -3.02815018228813
H          -0.53652921610725   -0.56102658954335   -2.83021723931623
