    26
        -50.46042116  Gyration_radius:  2.39379809693 Dipole_moment: 5.483
 S          -0.95611275255001    1.11216064710485    0.44611379509336
O          -1.35707123202295   -0.39276118168877    0.69449778950534
O          -1.41170888599288    1.46856305194786   -0.88520222197513
O          -1.56215196425010    1.82901315116592    1.53563527080791
O           0.51691135514357    1.14269561097615    0.50756964232712
O           2.11204962903028   -0.36993408826714   -1.72354498693899
H           2.28258090646837   -0.63120212172189   -2.63051151965330
O          -1.52462931156758   -0.75408797401209   -2.38925533217361
H          -1.50577505317023    0.08964079255330   -1.89224532264301
H          -2.36814596029229   -0.76894703167553   -2.84267206559573
O          -0.88187401812345    0.09588424915997    3.38785868807803
H          -1.11527381815341    0.84393215782065    2.78154787711487
H          -1.68356086736524   -0.43021675093213    3.43436613586384
O           0.23040628736642   -1.89918516793451   -0.68478818752169
H          -0.38613526612716   -1.89881609231023   -1.43460912637548
H           0.98787315769112   -1.34740285575792   -1.01232902296293
H          -0.79830030371423   -0.98075724886007    0.11211615521805
O           0.95309840016345    2.02043109363233   -2.04515404783620
H           0.03799767248764    1.86576016829872   -1.73894726847672
H           1.36140698908710    2.52537415219302   -1.33796837756863
H           1.69422899245191    0.52440890534781   -1.78550921536039
N           1.10508552005955   -0.84920128328379    1.91978848295064
H           0.34327327248917   -0.65262720371623    2.63174275514132
H           1.01139687950792    0.04071840726586    1.27040354768990
H           2.02509426083775   -0.92160017042125    2.34044764872922
H           0.88933611048439   -1.66184318711940    1.34064890638179
