    26
        -50.45971458  Gyration_radius:  2.4285394777 Dipole_moment: 6.565
 S           1.07879908981897    1.37483043588986   -1.37582063447742
O           1.41725737864863   -0.05587231715945   -1.52190478332105
O           1.63045672402343    2.20738852792352   -2.38509154134727
O          -0.40296384764740    1.49066305457010   -1.26584392062474
O           1.62743969325301    1.84169979743885    0.00975234387253
O          -1.49597863571356   -0.00134633133330    2.02463141590741
H          -2.09562441001690    0.03352019028331    2.77065705746034
O           1.51103515687090   -2.01258472301445    0.15774934253482
H           2.29511167528442   -2.53581658596964   -0.01123530833625
H           1.53043324017149   -1.26325965898807   -0.49862779575533
O          -1.24484968546878   -2.10374718804156    0.27976732678216
H          -1.43692613481198   -1.40177300858768    0.92934695521324
H          -0.29554802681441   -2.29219988781991    0.37239216643155
O          -1.12281206032309    2.40440057409635    1.06892271632872
H          -0.31091671209109    2.79290901939291    1.40512772057830
H          -0.92191071625269    2.16873608197698    0.13307960773913
H          -1.45865564603781    0.92238803260674    1.65075198408772
O           1.24676554351216    0.06473732484433    1.88163026516392
H           0.29599748758132    0.01791569491747    2.08322727078434
H           1.46557613083012   -0.77967305001448    1.45124013070233
H           1.49572180948269    1.14647727905525    0.71283392000309
N          -1.00064914941614   -0.83608641849028   -2.00675921438000
H          -1.24563622926953   -1.41666096547379   -1.14620319931308
H          -1.57630743476922   -1.04482034896409   -2.81393578802111
H          -1.00270674296890    0.20949663300548   -1.72278897587997
H           0.01689152227810   -0.93132216239369   -2.18289907208528
