    26
        -50.45971453  Gyration_radius:  2.42846460641 Dipole_moment: 6.568
 S           0.30762246730416    1.53103935304064   -1.58344557023337
O           1.04296003630666    0.26469972784630   -1.78013689353613
O           0.36590407697213    2.41397647204471   -2.69389262053745
O          -1.08553944102389    1.19792749005801   -1.17215587820096
O           0.93761145121353    2.24525389812390   -0.34579657244930
O          -1.00149791905376   -0.30528417045910    2.28895500714928
H          -1.42657439378557   -0.39892239563323    3.14212105833446
O           2.06617901247039   -1.43905341821651   -0.13426188452194
H           2.92621216573184   -1.71085884304528   -0.45602953896791
H           1.72325416177114   -0.77070650464618   -0.78880206451099
O          -0.44463441614178   -2.35581988694505    0.55334622462630
H          -0.71855902699458   -1.69933289931873    1.22082902763495
H           0.51505830118851   -2.23865526519003    0.45074724878662
O          -1.59206654135201    2.02138287040104    1.25059614323323
H          -1.32819471116778    0.55527804577452    1.90535156656188
H          -0.89388472501187    2.66247080219173    1.40778700828058
H          -1.51154193921756    1.78867841010102    0.29608882702878
O           1.50101555138347    0.58227418505984    1.58365511275050
H           0.67017995881868    0.26327949572606    1.97701761221680
H           1.88664188984809   -0.18507263372628    1.12693597667920
H           1.16863182448899    1.59760341675887    0.37688298068381
N          -1.05411129413251   -1.24894762921944   -1.74835165195283
H          -1.67885363069935   -1.68288171816611   -2.41757253702625
H          -0.11176295376679   -1.04241463127132   -2.12893828257154
H          -1.32938603298083   -0.23559966188406   -1.48161572227855
H          -0.93466390190114   -1.81031451950371   -0.84931456725227
