    26
        -50.45971445  Gyration_radius:  2.42835572086 Dipole_moment: 6.567
 S           1.18835840968178    1.40640190478306   -1.24646250078839
O          -0.29707888848626    1.42828118809746   -1.36444504602836
O           1.63124531263741   -0.00254291265478   -1.28938813887298
O           1.83574557108597    2.24676488937255   -2.19022142089549
O           1.49074173376482    1.94350059715398    0.18840857412565
O          -1.78159070672470   -0.04600083293872    1.77624194932340
H          -2.48771722601465   -0.03116896701482    2.42315079770907
O           1.58859589724140   -1.90537549934960    0.45334279773175
H           1.66166348094706   -1.17344737213494   -0.21859558995465
H           2.41904851563615   -2.38119356195507    0.42105738675055
O          -1.14344227550719   -2.17264766913803    0.16439240222699
H          -1.47374892816744   -1.46777889254874    0.75224701120906
H          -0.20956387558571   -2.29682400889345    0.40472465611150
O           0.94182841450306    0.19409369770711    2.04412582869191
H           1.27404699001358   -0.64509798248148    1.68145034369430
H           1.29789680582466    1.25916733975436    0.88813358285200
H          -0.02396805975166    0.09064488536788    2.10212172432153
O          -1.41480568194117    2.35367577969829    0.80321880057186
H          -1.06136492020464    2.10752508343827   -0.08347319773040
H          -1.74412732496620    0.86838929163694    1.38001121129494
H          -0.68742116841935    2.80195906900560    1.24267520611154
N          -0.63252205526140   -0.95122926560777   -2.10317213181693
H          -0.74247663158144    0.09874093022490   -1.86052236814256
H          -0.96978940283051   -1.52420514558427   -1.26915192445326
H          -1.06366294173945   -1.21885458851163   -2.98008519916657
H           0.40410896594471   -0.98277795742370   -2.11978476492489
