    26
        -50.45567459  Gyration_radius:  2.46085924838 Dipole_moment: 5.084
 S           1.34417501182311    1.22572434691527   -0.69264262723647
O           1.09843560158874    1.65449898793423    0.76776236780426
O           2.79195461960211    0.72695139772133   -0.68341557451074
O           0.46402238125503    0.12643549187277   -1.00424741588887
O           1.21936732817062    2.35492185425782   -1.56264613454904
O          -2.63478952705562    0.74957578263549   -0.16462776988446
H          -3.37092968428162    1.31217589487829    0.08155557405788
O          -1.48526393428065   -1.68613527287904   -0.98991195485516
H          -2.17368703641389   -1.06021193891418   -0.72592457583783
H          -0.74033973873351   -1.11374209055614   -1.24238067680703
O          -0.17712550809266   -2.28816891429206    1.21031415798601
H          -0.60604464918338   -3.01136351853522    1.67011308741502
H          -0.65863901344135   -2.18085441339721    0.34542792199679
O          -1.39317173063466    2.09895004083275   -2.09287664896727
H          -2.14103276176994    1.24240998103592   -0.86646077061093
H          -0.46383417379839    2.32859348999415   -1.89510229013238
H          -1.35254028378561    1.53963415558245   -2.87182211723993
O          -0.78589718362012    0.31132968858044    1.76071240303867
H          -1.49808501859678    0.46855771279700    1.10397216193394
H          -0.52781592746624   -0.62582065208498    1.64938542581544
H           0.33012539658546    1.12036859266460    1.20685486259755
N           2.54608581396646   -1.13167422224917    1.05677423048507
H           2.55470286236740   -0.66721625160547    1.95607937687472
H           1.63358519914217   -1.56661315286652    0.93455954133085
H           2.77481619073586   -0.07184295013684   -0.00904226306735
H           3.25192573591136   -1.85648405019241    1.05758969826548
