    26
        -50.45916070  Gyration_radius:  2.55283206048 Dipole_moment: 4.815
 S          -0.31694882478059    0.64838700346800   -0.99732262409348
O           0.19894124494676    1.85067764030057   -1.63502940978647
O          -1.65593910905830    0.76322909020761   -0.47097122997222
O          -0.15809793423380   -0.52175299825765   -1.88099465860178
O           0.65906085007918    0.39563635070624    0.20460175866988
O          -1.43050852276701   -0.34899468864425    3.37806646912027
H          -0.84709385292102   -0.04181792303864    4.07359407453168
O           3.25321303713596   -0.07068349248343   -0.37460309689700
H           3.42031746011502   -0.94389433156853   -0.01421187168023
H           2.39680557126223    0.21484740253132    0.00312194050498
O          -1.90712003196183   -1.99876424880525   -0.49781477640698
H          -1.28781672458935   -1.65090863950563   -1.16543896850612
H          -2.48590835549397   -1.25025195296058   -0.31632093473340
O          -2.03832043150096    1.81060416827636    1.91894385934678
H          -1.84194062844712    1.48427976936819    1.01323569363339
H          -2.94651956229985    2.11708273188637    1.89231165616372
H          -1.69681840026852    0.45469671493722    2.87539403819469
O          -0.12464976916483   -1.62621734563398    1.43955598664369
H          -0.62212303267620   -1.26298959787173    2.21172850610557
H          -0.80923285949305   -1.96543006471900    0.81464925035355
H           0.34286563529932   -0.45061346530423    0.74512367463595
N           2.03304965696809    0.47512264849641   -2.68740211587599
H           1.45552021258283    1.32062864112311   -2.35124599743354
H           2.75039357521631    0.25811732111896   -1.96001821593932
H           1.24457985532731   -0.23047864453905   -2.59698198802560
H           2.41429094074496    0.56948792090374   -3.62197102995277
