    26
        -50.45909179  Gyration_radius:  2.50582580621 Dipole_moment: 5.787
 S          -0.49905908613651    0.81036633869004   -0.54966807709224
O          -1.68995494379340    0.83076833308098   -1.39229626778172
O           0.64873743936227    1.43763885117947   -1.19291420893532
O          -0.84608177934724    1.54916693988896    0.74458992960088
O          -0.17027722929088   -0.59270894411325   -0.20424721682036
O          -0.09375746883641   -0.67302714803643    3.69809350194614
H          -0.54365606224415   -0.49532351778541    4.52525921069550
O           1.20951051866029    0.13344209660073   -3.39786492574223
H           2.13678078830161   -0.09919325807582   -3.31641831630830
H           1.02265660199273    0.75471492088630   -2.65076535679969
O           2.38495475823670    0.16815467450277    0.38923621754975
H           2.02600119825069    0.81229673391175   -0.24664067005445
H           1.73378720554041   -0.54601127442265    0.37054116036287
O           1.03897897937441    1.35507001474804    2.37385497540522
H           1.74235606266255    0.96910124096680    1.80483219408319
H          -0.04878619243164    1.53838756376350    1.43898084871655
H           0.72578845249024    0.62193106204296    2.95392901788181
O          -1.94664076928029   -0.87984589449624    1.75090784637481
H          -0.79324170671530   -0.87299456056629    3.03630867903479
H          -2.33478134768483   -0.00198404824830    1.69588045643541
H          -1.29661186428651   -0.90694305655739    1.02098499366361
N          -0.89754685223632   -1.23335857867681   -2.61297015130210
H          -0.55148377498941   -1.52307542200196   -1.67639767408804
H          -1.43432631644565   -1.94005250293510   -3.10413768261078
H          -1.45607331559454   -0.35320050938258   -2.31035513361939
H          -0.06727329558365   -0.86332003496725   -3.14872337059693
