    26
        -50.46115516  Gyration_radius:  2.63844101313 Dipole_moment: 7.510
 S          -0.63167849867460   -0.13918552188727    0.45821915003488
O          -0.44822923949287   -0.09502946988805   -1.00809154612947
O          -1.08713553970610    1.17146553195354    0.93717442901540
O          -1.78120756270471   -1.11668881892452    0.74907908076891
O           0.57044178737095   -0.58612642780320    1.12678472187280
O           1.36496936506592    3.57354720656654   -0.94655717071732
H           1.51097795908609    4.46522831102025   -0.62632604655464
O           0.36877009799728   -2.46408802698073   -1.88871195410988
H          -0.06270514740148   -2.55494374766478   -2.74001614953382
H           0.17416504462991   -1.55549472627747   -1.57672671393549
O           0.92148673309637   -2.99706670962382    2.20005567463696
H           0.60162265065729   -2.89853287562439    3.09832533367634
H           0.93473898609595   -2.09516829703652    1.81756849973283
O          -0.89438973252431   -3.43422059173933    0.27596481990718
H          -1.47754495025857   -2.08538807962810    0.55850129049645
H          -0.38290427737096   -3.27462503809132   -0.54566119607166
H          -0.22150590127731   -3.50910778646530    0.98679321351676
O           1.43578330779796    2.01336687413567    1.17949740963012
H           1.54805489774121    2.97666236669177   -0.17631108167989
H           0.48382876641075    1.83883969890743    1.29904196933598
H           1.81317361190990    1.12624849198089    1.17444500140069
N          -0.97000057146666    2.37266046364050   -1.30876133547852
H          -1.25571001275361    2.19814794795782   -0.30602703876493
H          -0.70943980312678    1.36410492486978   -1.53229561092922
H          -1.70993373457749    2.74269143512655   -1.89409712985053
H          -0.09562823650159    2.96270286481910   -1.31186764029053
