    26
        -50.46041487  Gyration_radius:  2.42330890604 Dipole_moment: 7.842
 S          -0.17439296500736    1.28306747397955    0.32693042038923
O          -1.39894309328957    0.48320216544378    0.13849116519994
O           0.03801401335610    1.53224468211567    1.81464748191578
O           0.97009885054434    0.53625633475940   -0.20442890692158
O          -0.31775187889945    2.57971704764464   -0.32699287597430
O           2.61174588266335   -1.18662172912839    1.26676618643593
H           2.41349292645442   -0.39007696009953    0.75452009009699
O           0.77806541449308    0.52547473201266   -2.83720625458790
H           1.55508100895398    0.94048722598864   -3.21491099033912
H           0.94334885444931    0.47100835814527   -1.86622756675272
O          -1.47540890791945   -1.72663402632659    1.53505190246963
H          -1.50848593591265   -0.89592823101969    1.00060741081335
H          -2.32795360728843   -1.80875411106017    1.96440608356825
O           0.60587991553249   -0.64997324226881    2.91042168764665
H          -0.09547748307029   -1.22698099793190    2.55065826976350
H           1.44599584393391   -0.91156998113001    2.45323043748323
H           0.28476132076302    0.65289224731541    2.32235679356716
O           0.61758683322292   -2.23280139779996   -0.30922888897715
H           2.19729115875645   -1.90203035282277    0.75389653128129
H          -0.14525524214027   -2.41753112998382    0.25000881534253
H           0.63449905985969   -1.26914648667762   -0.41663440367000
N          -1.57358060133183    1.52995902619434   -2.22857979463138
H          -0.76843387485019    1.11138875129373   -2.75888180166128
H          -1.10755240802138    2.24435000378591   -1.55224138202210
H          -2.32007477639370    1.88811866573643   -2.81404627962558
H          -1.88255028900067    0.83988193193767   -1.51261413069141
