    26
        -50.46521626  Gyration_radius:  2.38447989371 Dipole_moment: 4.702
 S           0.52152498170272    0.77109259559074   -1.46172790325321
O           0.52976375198966   -0.55267117803951   -0.84754813270717
O           1.75975723336857    1.48621950198219   -1.26852179186721
O           0.06225259101284    0.66651643836777   -2.84600623866777
O          -0.62921760482237    1.58436789411836   -0.74384889961482
O          -0.95987190364081   -0.84551995389856    2.14914696608477
H          -1.21974262205461   -1.31868842222985    2.94027157941875
O           2.57544768510884    1.14686875108690    1.17883753309261
H           3.28431742032628    1.77630045385253    1.32119616778230
H           2.33442273559568    1.22953035059500    0.21910893267051
O          -2.39059186668450   -0.40338852927816   -0.18066715104729
H          -1.94560726479174   -0.70149649356668    0.63532419063549
H          -1.99400364894716    0.46738671573044   -0.36196055611559
O          -0.01144603022445    1.71093883988430    1.73518378523572
H           0.95266071883726    1.54765663898056    1.70678177514604
H          -0.36830763824059    1.74248230774802    0.22121991156022
H          -0.42380475277480    0.87699913538397    2.02406063630660
O           1.48794473923754   -1.42614730951640    1.43019939197654
H          -0.03984174348899   -1.15679498918936    1.91653255610717
H           1.22731536635765   -1.23918853104593    0.50251893195593
H           2.08107074656737   -0.69369063394889    1.64458845265576
N          -1.39321884254462   -1.36498701123094   -2.40788564290565
H          -0.70885820863639   -2.08469743637514   -2.18784667593342
H          -1.87384872113351   -1.07732871464441   -1.49064336726061
H          -0.80696415691655   -0.47670177055923   -2.70796059366418
H          -2.05115296520532   -1.66505862979490   -3.12035385759288
