    26
        -50.45856217  Gyration_radius:  2.57441247486 Dipole_moment: 5.502
 S           0.62546837057519    0.47084968279581   -0.76533492319692
O           1.86772642777885    0.77253007239806   -1.43626101779913
O           0.16953150703599   -0.90413888787690   -1.09250812397820
O           0.97068619564727    0.42042529298899    0.75663157302160
O          -0.42430291417171    1.44715359786293   -0.97249901894281
O          -3.06232844293453   -0.70123880869480    1.00808049519641
H          -3.91172235631542   -0.28553098967821    1.16558853881869
O          -1.57174504281780    3.00623836934442    0.86251781254999
H          -1.02525478295107    3.78626625556388    0.96760234566256
H          -1.20526105204553    2.52002498681504    0.09586066410139
O           3.81265312225901   -0.89408201104289   -1.13059907025071
H           4.07558127236760   -1.13164437603907   -2.02173682717434
H           3.15859528943837   -0.14894893326606   -1.23871267287426
O          -1.10113074497389    0.69416735965620    2.14553909100533
H           0.11561941092384    0.52670909989864    1.33403965644014
H          -1.37354962421212    1.59775847522268    1.88121804688863
H          -1.80793045868659    0.09942414472202    1.79573886223135
O          -2.41173669036726   -0.25290939553751   -1.52935951811030
H          -1.91042109355074    0.57594910888724   -1.43383003509816
H          -1.70839123763261   -0.90601539210397   -1.63987552265293
H          -2.88038989717894   -0.58431193791138    0.04258862550659
N           1.93271239855974   -2.06804048571528    0.26449906430726
H           1.10003662312480   -1.67836713967542   -0.36934756386754
H           1.88049069695838   -3.06542860315113    0.44304271022438
H           2.81172091482302   -1.77721924668188   -0.25602818596028
H           1.87334208841191   -1.51962022872887    1.12314500395277
