    26
        -50.45909191  Gyration_radius:  2.50583160423 Dipole_moment: 5.784
 S           0.48371287123514    0.84330913212480   -0.51296499564619
O          -0.05972927047898   -0.52839027098236   -0.37502257178016
O           1.40522048961164    1.11138035688861    0.67874066527388
O           1.30264768260173    0.91595311024222   -1.71827732645329
O          -0.61198736691331    1.80457757622079   -0.52566997811022
O           1.11008586837992   -1.71656500038628    3.15642404238920
H           1.83293337739503   -1.85790108786960    3.76936544483760
O          -2.16859313815991    1.30058952375357   -2.57496327694113
H          -3.04521680521970    1.20131740276311   -2.19754402099539
H          -1.59868964099959    1.64193069203166   -1.84158729470616
O          -2.00663640484051    0.42588488517719    1.28636087990302
H          -1.59982871676763   -0.34733350978093    0.87292020389803
H          -1.72043088565746    1.15987021101586    0.71407554144080
O           2.11771081934241   -1.64816274338749    0.65719204541376
H           1.48331638209337   -1.82676109746562    2.25319466871892
H           1.28258287454082   -1.35960841324832    0.23848473313725
H           2.67605640609995   -0.86558201157181    0.64586442952533
O           0.16189782262859    0.76026721475239    2.81798425408382
H          -0.76085197635551    0.67171340197822    2.48905023993832
H           0.44957444277352   -0.14899838659683    3.06818931857961
H           0.89916794140557    1.02864118955957    1.60342574750421
N          -0.33843039005910   -0.55141561558202   -2.95619777902349
H          -0.42419234462212   -1.04080633334218   -2.04296400867638
H          -0.18711809654945   -1.16164595164702   -3.75213174594230
H          -1.17506232083974    0.08534254606768   -3.04564121758572
H           0.49186033935541    0.10239317928398   -2.70830798877000
