    26
        -50.45909173  Gyration_radius:  2.50584862587 Dipole_moment: 5.785
 S           0.28232213299474    0.47091451414264   -0.95228493609626
O           1.50883687704068   -0.25790811614947   -1.25088594672287
O          -0.48458307981259    0.78657576683210   -2.15262061283483
O          -0.55985618392507   -0.32905782388232   -0.03199398882964
O           0.61217251745872    1.79638498989412   -0.26257744361797
O          -0.56521643432958    1.67556604372976    3.31850398058318
H          -0.72464125519677    2.50556079400896    3.77005337454938
O           1.69254365265233   -1.21580347564152    1.23432668962293
H           0.72631603799664   -1.20721413875764    1.20864972440697
H           1.94079653500345   -0.97194341241660    0.32486185909072
O           0.89310288766638   -2.52215764501754   -2.42217140752226
H           1.32675694883073   -3.19680005410988   -1.89548447388327
H           1.23915560531058   -1.65770925994874   -2.08755128613703
O           1.70622683916342    1.36448572247116    1.94249932009541
H           0.94842277913028    1.46999616390601    2.56433909484308
H           1.87642494477790    0.39748734294432    1.88391111395703
H           1.12877074768300    1.65599231973106    0.64920332263504
O          -1.94101688947152    1.69284326599217    1.00020435740828
H          -1.53528151395083    0.87200279765520    0.65722853481555
H          -1.17645226811256    1.65397685565746    2.54834801386150
H          -1.53433999707267    2.39608478880861    0.48603420088592
N          -1.52101839592024   -1.51651483014498   -2.13097385768405
H          -2.40708945785050   -1.83065973712656   -2.51175357196858
H          -1.22436119946366   -0.51159395727514   -2.41397787468630
H          -1.51080629103393   -1.39252966723454   -1.09866394071476
H          -0.69718553958243   -2.12797924807537   -2.37722425605605
