    26
        -50.45424197  Gyration_radius:  2.49865893444 Dipole_moment: 3.401
 S          -1.04564494799957    0.70101438515928    0.72875160886557
O          -2.10973767737251    0.93731680067428    1.80195604187099
O          -1.85768768647538    0.60826030264179   -0.55457609197199
O          -0.14449144565703    1.82292069938330    0.69605383252481
O          -0.39131384284217   -0.56638054974615    0.96170046143258
O           1.52405816139861    1.51150106727226   -1.46703514828734
H           0.98344723957175    1.94449830139514   -0.78993115250406
O           2.34786293733141    1.59253100618351    1.82733703154956
H           2.77625358836882    2.44231729730208    1.70924386342512
H           1.42142410513341    1.71606814302761    1.55704385652373
O           1.18055761498237   -2.05618669399473   -1.97769574570613
H           1.62281617017147   -1.71320205797949   -1.18541760787380
H           1.86002655060963   -2.15085124319990   -2.64822097751197
O           2.15728988897273   -0.57699151488478    0.16799447738166
H           1.24896244962746   -0.67976196243073    0.51661400068590
H           1.95915362397437    0.77315212481683   -0.99328050910448
H           2.58815136015090   -0.01227703517614    0.83010152970970
O          -0.39981224000734    0.05993532356440   -2.47174134390345
H           0.34052225949951    0.70343345394416   -2.29749302615976
H           0.00697088673655   -0.82540960873121   -2.32890804189325
H          -1.26089048077557    0.35241449763416   -1.42734642131687
N          -3.04259405656589   -1.41831558106913    1.47661000889037
H          -2.63365238227684    0.05279545850716    1.79859883806036
H          -3.59695318125259   -1.47210345024320    0.63238623071090
H          -2.09452559274563   -1.71403937735144    1.26239686534823
H          -3.44019332257721   -2.03263980671583    2.17485743924882
