    26
        -50.45909193  Gyration_radius:  2.50570366543 Dipole_moment: 5.784
 S          -1.07087891200724    0.21442605724587    0.12347001446950
O          -1.62340190884414   -1.12905267968948    0.00395032593211
O          -0.88490471959293    0.57789868691357    1.59813643626666
O           0.25606210073094    0.26680721591004   -0.53428286555960
O          -1.93871846528301    1.22838076868043   -0.46595901041479
O           2.79801115277408    0.80328697507040    2.37952550181314
H           3.06880020935011    1.32149858004827    3.13866853423091
O           0.76720041926535   -2.27363106437506    0.32778507836518
H          -0.19947227722655   -2.17019747260663    0.27389292462702
H           1.09842676158371   -1.48835555212472   -0.12834521540795
O          -1.91429742841480   -1.71076058816427   -2.53649712128933
H          -1.94592462377653   -1.55733930575715   -1.55942079728361
H          -1.43991574359269   -2.53649262028761   -2.65430035504016
O           1.21891604799035    2.33755734910362    0.82392596736580
H           2.33665537738809    1.42112128301241    1.76909224160630
H           0.95404793694686    1.60769215829714    0.22967190647786
H           0.44060853748761    2.50401935368422    1.36317090477174
O           0.79371451982593   -0.94560340737457    2.65060877140450
H           1.60831736913342   -0.39064710196850    2.62682834853117
H          -0.22333853541323   -0.08167439115357    2.09341875535502
H           0.90534510738408   -1.62143030632012    1.94473958542667
N          -0.99527982211346    0.74506765602015   -2.75835746213367
H          -0.10008968157664    0.61957479543199   -2.24482965291582
H          -1.59495911447820    1.13038933717847   -1.93962934961063
H          -0.93670575156520    1.34631900273424   -3.57307207904908
H          -1.37821856592444   -0.21885474947629   -2.95219139793562
