    26
        -50.46094131  Gyration_radius:  2.63216646488 Dipole_moment: 7.522
 S          -0.51211998762276    0.34530686223828   -0.61677595353341
O           0.16689070467495    1.17393472953635    0.36854630409599
O           0.18821866073629   -0.93873056880025   -0.80052208323980
O          -1.91195290529194    0.10536048103850   -0.25612956231812
O          -0.52839956471535    1.07687046431586   -1.96376523881771
O          -1.22040363750675   -1.91666128251818    3.03907371678536
H          -1.77661010108264   -2.06801590643816    3.80447395574491
O           2.07924342262764    2.95719441917312   -0.13289141225732
H           1.65599925968513    3.80579069039621    0.00696990178845
H           1.44038296301439    2.28179177639547    0.17514673004421
O           2.59793963777593   -0.78471081799543   -1.90115879465636
H           2.55815310577481   -1.41311667205652   -2.62405104209416
H           1.75471660643904   -0.87934749673582   -1.40844875569893
O           1.85148162543852    1.72104637600545   -2.49922329955501
H           0.43030589720843    1.36333208596358   -2.22806689017882
H           2.09327072391803    2.27787441477852   -1.72744886086787
H           2.31336263890394    0.86702940174400   -2.35569705428971
O          -1.40744615882733    0.63519696359473    2.41225493196730
H          -2.16709556248854    0.67678697092388    1.82079939080684
H          -1.19229540339497   -0.93211236619817    2.90745885224736
H          -0.66806616768591    0.90147679682381    1.82761706930583
N          -1.57202157137620   -2.30755628728572    0.44160199304561
H          -0.64732819296920   -2.10850832292219   -0.02435119387218
H          -1.45149697141839   -2.34246406184988    1.48621257595715
H          -2.03104435804840   -1.37519232210353    0.18176721105923
H          -2.04368465377716   -3.12257630801164    0.06660752854306
