    26
        -50.46117183  Gyration_radius:  2.41698169397 Dipole_moment: 3.332
 S          -0.26322528262329   -0.83742195876727    0.53349981151760
O           0.55725907981793   -0.55231084319806    1.69479215789048
O          -1.14995987812771   -2.07417591546893    0.80494823791615
O          -1.18290220468664    0.28882311466940    0.26978016337400
O           0.52979988770723   -1.12399282406936   -0.65314692944665
O           0.28777393744553    2.15544475029844   -0.57281575455251
H          -0.42274279836920    1.54187331071189   -0.16378558181859
O           3.09678139448466   -0.36222332338619   -0.99676997405466
H           2.27778100067960   -0.86772544071177   -0.84096572681750
H           3.07550397129176   -0.09502866677792   -1.91880422400775
O          -2.10762852315322   -0.04185008125567   -2.23923777862128
H          -2.32186165167659   -0.97008121096986   -2.34330530749203
H          -1.91428704764716    0.08589994388918   -1.29042540306584
O           0.46652006246435    0.66868252731881   -2.59983983797288
H           0.57982946640830   -0.10935952973089   -2.00917652503451
H          -0.47116191956108    0.59985626346220   -2.86241056490784
H           0.43412370115984    1.70707761700559   -1.50585184200233
O           2.17023587336242    1.33907045301921    0.81832099034251
H           1.66455387152463    0.66026475620778    1.32393207413516
H           2.73737606383007    0.81436847590843    0.20508766428253
H           1.16834409173381    1.92706715206405    0.02772033396228
N          -1.92679948513167   -0.92747952125934    2.98599157646292
H          -2.53125773056667   -0.15261097093043    2.74539416999155
H          -1.59655249351186   -1.81947079427192    1.66972269840865
H          -0.97109479208045   -0.58236397794217    3.01622659640038
H          -2.18640861479613   -1.27233328582044    3.90111896511327
