    26
        -50.46117192  Gyration_radius:  2.41703712091 Dipole_moment: 3.332
 S          -0.08500062552974    0.50662167414469   -0.89058898077044
O          -0.92462703474189   -0.65257457947095   -0.52279355764340
O          -0.09577159119468    0.58453215702903   -2.43443010055851
O          -0.63898743559527    1.72388216335769   -0.32996527128441
O           1.29185631276948    0.27782184265651   -0.47700023704307
O          -0.53816934421630   -0.98703517240964    1.94633558711276
H          -0.87168741146227   -0.92672461218325    0.98015605073171
O           2.43010112906808    1.36714969279043    1.71543337245247
H           2.16672906675949    1.14542980598129    0.80325180894313
H           2.93485277582118    0.61687853406454    2.03843750745641
O           0.54825540546286   -2.85844506888245   -0.99520840497942
H          -0.08797948901323   -2.12235228768310   -0.90853349861646
H           0.98190015581996   -2.73561867019209   -1.84090957480489
O          -0.16950727234988    1.44579212184938    2.24840430291602
H          -0.40776887580198    0.06128099377563    2.21513692815453
H           0.81019644340245    1.55998300426706    2.26103391262887
H          -0.43611711386713    1.72408319686301    1.34082671618266
O           1.72961995322867   -1.75558757983662    1.16061131285749
H           1.76200655053383   -0.99653417094811    0.53625023392435
H           0.41890197076664   -1.38480030177277    1.80887102195961
H           1.48118335752230   -2.49846194518447    0.57799378188827
N          -2.60027865449394    1.20500327244828   -2.29570697428407
H          -3.12026772709090    0.38313465012888   -2.01680833051747
H          -1.05688965115895    0.81574643501229   -2.62042207864778
H          -3.20344335454063    1.80148742938266   -2.84727027483448
H          -2.31910754011031    1.69930739480554   -1.45310526323588
