    26
        -50.46699854  Gyration_radius:  2.43488159307 Dipole_moment: 4.891
 S          -1.13892821316335    0.93459728444252    0.54530075264683
O          -1.02781563903509    0.98696050873867    2.10392659501925
O          -2.04270903920934    1.96064334253342    0.10332747119415
O           0.21353314843705    1.12296324736470    0.02276987977881
O          -1.61446330977491   -0.42309759077796    0.20771637410756
O           2.16230446482144   -1.56589597094008    1.12694932775472
H           2.93635673812421   -2.01173183418124    1.47396849056546
O          -1.73026283542466    1.77400292664796   -2.50917508173425
H          -2.52723629095226    2.15007691128608   -2.88768478065534
H          -1.79401407982171    1.93784720634309   -1.53941004176656
O           1.70396655321362   -0.53132899390751   -1.43322289384131
H           1.93795002675156   -1.11701898155751   -0.69460693732511
H           1.37032100949137    0.27248933627370   -0.98835953655940
O          -0.36565769773125   -1.52903100395121    2.25900664525148
H          -0.76177119881873    0.06488626900154    2.36038689761176
H          -0.94905651721155   -1.50470669891582    1.48194859127732
H           0.53023221097640   -1.68236712918974    1.90835990276020
O           1.98342646551117    0.94439211628292    1.94831489753379
H           1.36760901854908    1.16519336514482    1.21297485599822
H           1.49204964603552    1.12295476164699    2.75316333536816
H           2.21376508251707   -0.62892117356599    1.44592767234448
N          -0.79506001230120   -0.71558191420217   -2.21660887820138
H          -1.20713080045831   -0.73006105501128   -1.22877486716391
H          -1.07630220807415    0.22166372769710   -2.58195228300912
H           0.25983983881633   -0.74803693016534   -2.07649062139654
H          -1.14094638116401   -1.47089173709040   -2.79775576760499
