    26
        -50.46699855  Gyration_radius:  2.434764446 Dipole_moment: 4.889
 S           1.40927626622275    0.04286031024200   -0.69206375899934
O           0.49111973365066   -1.00353998750393   -0.24511730141587
O           2.49877644515507    0.18698241840089    0.41992154702079
O           2.04789087153989   -0.28627900095177   -1.93656744299524
O           0.69625846083589    1.33600588605532   -0.74583433763269
O          -1.02086670931865    0.10494073418786    2.70908226866816
H          -1.36866384075080    0.04271996030059    3.59983476633429
O          -0.06581703578937   -0.75036182848090   -3.44500079847220
H           0.23428695328329   -0.62964754897232   -4.34794010583839
H           0.74243367808474   -0.68275632357660   -2.88513585658905
O          -2.10570912276341   -0.84225737014480    0.30927811993650
H          -1.98811795010427   -0.40560538933631    1.16889116517765
H          -1.21689159387266   -1.19799292480747    0.11218247595776
O           1.00615061413578    1.78195498222114    1.84151333041456
H           2.08346681445100    0.78976459197057    1.09144785444811
H           0.73900172850761    1.98795298699332    0.92990145908898
H           0.25200214904025    1.30575357494473    2.23341268951995
O           0.93912229644617   -1.61762010347330    2.26360285528344
H           1.83970360585349   -1.33134952788524    2.43148200301185
H          -0.33611490881650   -0.60694192905696    2.62692807280371
H           0.81797487581041   -1.53870197431475    1.28999354423043
N          -1.57737642212122    0.67996297364170   -1.76313530854561
H          -2.21696348728845    1.38494904315567   -2.11213725812650
H          -1.22521473233799    0.05767926123380   -2.52435213959943
H          -0.68239960157065    1.09891569285749   -1.35174646326535
H          -1.99332908830386    0.09261148227434   -0.97844138042075
