    26
        -50.45974662  Gyration_radius:  2.50451860697 Dipole_moment: 6.042
 S          -0.45412835606462    0.66460320711917   -0.59575276179137
O          -1.51823385911328    0.58119860924299   -1.59197637589784
O           0.72094716730211    1.35158419485176   -1.14401030899836
O          -1.01089702200877    1.44209526259200    0.59498147024037
O          -0.06883262917892   -0.67891505564384   -0.13480766261588
O          -0.40787172843969   -0.56318781226307    3.73412623975979
H          -0.95907965531100   -0.40979637572187    4.50286242279555
O           2.36473035480589    0.39165950666003    0.73921000147466
H           1.95916513957083    0.86590201082016   -0.01013508397805
H           1.95167559574662   -0.47836510264203    0.72112315641733
O           0.64342976003502   -2.03979221900367   -2.26648948532660
H           0.08831438720912   -2.82138233270117   -2.29118506145734
H           0.43664423301577   -1.59311369779436   -1.40888377896683
O          -2.02334998386423   -1.03454425507849    1.63520941537973
H          -2.47563727262878   -0.20262995567601    1.46987375359655
H          -1.31293725191901   -1.06554597752760    0.96473356579467
H          -1.01002233269247   -0.85604803813230    3.01281394950413
O           0.65778225885484    1.51416749597643    2.44060965546055
H           1.45747289351640    1.17775441471416    1.97161217068602
H          -0.30361211935820    1.53788123314466    1.38664715303961
H           0.35145107168140    0.77548091921666    3.01866922928232
N           0.19596170217798    0.28881477195468   -3.42114934524635
H          -0.74956132555733    0.40963968321180   -2.91919982005014
H           0.76974276775077    0.87214957856135   -2.76214993076030
H           0.46788560852789   -0.71313982127828   -3.25592681765452
H           0.22896063593545    0.58352974538562   -4.39080576067693
