    26
        -50.45974663  Gyration_radius:  2.50431311984 Dipole_moment: 6.038
 S           0.48168978452725    0.32201623263911   -0.81745780722022
O          -0.32038922717576   -0.61625009121230   -0.01596130260983
O           0.95136977101423   -0.31910944433781   -2.04224883060424
O          -0.31848636298205    1.51279967202152   -1.12585102657884
O           1.71758330101602    0.71244789856388   -0.00994867433918
O           1.34574057531501   -0.63818357190675    3.49332753387541
H           2.12927061286769   -0.78276059265551    4.02569053410214
O          -1.45409053376275    1.57927809869937    1.29830624596872
H          -1.55130325016098    0.62141951194034    1.33004769191262
H          -1.15689909728360    1.76083878926973    0.38745190231530
O          -2.28998812194417   -1.43840697614582   -1.54759530459192
H          -2.23064574166533   -2.39496262201674   -1.58091224391579
H          -1.61042833471092   -1.15215787811499   -0.88866884659785
O           1.04966178254838    1.67082383010741    2.18786817798764
H           1.46945200562984    1.17475079320385    0.91810184575645
H           0.08198591498627    1.79389817300516    2.04258658508179
H           1.13732758521925    0.88911942627740    2.78375094474052
O           1.68856461842187   -1.91400675949255    1.14972633353701
H           0.87139422566816   -1.57897843733002    0.73117738213818
H           2.39872785922189   -1.44360835565952    0.70436838064396
H           1.43772674960232   -1.21281456293987    2.69959715358916
N          -1.20077121545493    0.29717350626206   -3.20785579124642
H          -1.42032394663844    0.55092845770590   -4.16470122172478
H          -0.20893567164359   -0.08508675648063   -3.03271255200855
H          -1.15063815661996    1.10417380859090   -2.53703691358015
H          -1.84759513598436   -0.41334214999046   -2.78105020662612
