    26
        -50.45974660  Gyration_radius:  2.50433990499 Dipole_moment: 6.039
 S           0.94068666088916    0.02022302621326   -0.34704420095203
O           2.25856694190420   -0.04918969161744    0.27755532351564
O           0.77380793632378    1.43646102773965   -0.89311627640757
O           0.82669026399855   -0.95856909446127   -1.43436638827258
O          -0.11733814481728   -0.22246605942622    0.64693795653161
O          -2.48862255185013    2.84344283693433    0.38052425276636
H          -2.60375112966648    3.79374820183867    0.42275886028011
O           0.36976884434824   -2.56748328220483    1.72553737476156
H           0.08522678221236   -1.69939814838485    1.34675168535065
H           0.44861247679368   -2.42371077170427    2.67042331334836
O          -1.84928706531836   -0.87190339461674   -1.45407801694594
H          -1.90203209775752   -0.83877820371055   -0.49281456319197
H          -0.90664091908224   -1.04140806174338   -1.63760165648422
O          -1.50789770477061    1.73613286249463   -1.84120025122166
H          -1.98256421028383    2.16940324169939   -1.09238061067437
H          -0.17556125069070    1.58673939303761   -1.35436855853131
H          -1.81991406559057    0.80064837999756   -1.85522752350331
O          -0.21767363984344    2.22551876998749    1.68359423750696
H          -0.22220871306301    1.27611220056763    1.45138513874085
H           0.49099545106072    2.60073801718460    1.15356838283183
H          -1.72758301762367    2.62835531888892    0.96644671620074
N           2.30548707295210   -2.54934311966856   -0.06524441741653
H           3.05237021369744   -3.20586665832313   -0.26351406343049
H           2.60860899044143   -1.55065271291425    0.20168612684407
H           1.71374582324664   -2.28997622751778   -0.89364101521302
H           1.64650704250163   -2.84877787021300    0.69742816355498
