    26
        -50.45856219  Gyration_radius:  2.57464881817 Dipole_moment: 5.495
 S           0.87858569415388   -0.64853435460559    0.08050904843798
O           1.74342926923492   -1.73505063181544   -0.31418135434440
O           0.35677145940574   -0.02127892494868   -1.25077996156438
O          -0.34014369744165   -1.16302306858018    0.75566038024257
O           1.52696612916996    0.38584521775931    0.86000496767729
O          -1.85031589539793    2.32497434919666    1.43823351169532
H          -1.77418740670749    3.17902423194937    1.86709831855541
O           1.88956273009780    2.93932961046586    0.17996445371910
H           2.69315025327061    2.99389950292816   -0.33902699715206
H           1.85181199154170    2.02422014762041    0.52585266232973
O           0.69929502932825   -3.63028339659958   -1.71825185045465
H           0.89991797836203   -4.43392609081724   -1.23491438722099
H           1.21556790312295   -2.91099551702547   -1.25912434575341
O          -0.50432523542407    2.30303167539616   -0.85849565774651
H          -0.00626191191840    0.93697671610227   -1.09127789579315
H          -1.09404731158851    2.30283166366846   -0.06611222465226
H           0.31756632999067    2.74872781314392   -0.56478094535336
O          -0.31883592974216    0.61778313392870    2.78124873350483
H          -1.33365322785432    1.69491791313600    1.99943611969021
H          -0.65740144342008   -0.21852552805658    2.43540354598408
H           0.51789095569100    0.71848984601558    2.29442437989247
N          -1.38825455505612   -2.09815732351333   -1.32573297880960
H          -0.68967672625236   -2.85674973669415   -1.58007963442209
H          -1.03667048865466   -1.72611531220402   -0.33323441696336
H          -1.24605958896678   -1.30810880029693   -1.95589208352787
H          -2.35068231493959   -2.41930311612831   -1.32595140797795
