    26
        -50.45974661  Gyration_radius:  2.5042591573 Dipole_moment: 6.036
 S           0.18924359030460    0.38849928553006   -0.90427903855483
O           0.86123302005020   -0.10252732758165   -2.10387796007783
O           0.05907458104721   -0.68563742102796    0.09347841619424
O           1.06609276061111    1.49097988105575   -0.31484310814846
O          -1.13954616249659    0.91877071063486   -1.23093170064881
O           1.66582978330737    0.73295677283174    3.33277442785853
H           2.43263702221000    1.10671917635955    3.76917171249263
O          -2.00028300914267    0.77598655247371    1.30063938070786
H          -1.56819330519060   -0.07212984083112    1.44885228362608
H          -1.89623422360023    0.93512544603526    0.34416616393927
O          -1.24404009291715   -2.65023468499056   -1.06551953981581
H          -0.68320903295744   -3.42565419994805   -1.00350878710092
H          -0.78866342331534   -1.94910831722592   -0.53733907440067
O           0.11026856125867    2.30171415005285    1.83539905336100
H          -0.77942925993242    1.87706769948480    1.80695360092731
H           0.63469402862006    1.78882718203306    2.49552278133699
H           0.66025388783956    1.89933588038841    0.58256413093841
O           2.51042179361257   -0.53645532281088    1.11639657395896
H           2.00769737460570    0.17077581736514    2.60078584451713
H           1.61949969175143   -0.74954880233610    0.77569482427266
H           2.83338740227151    0.15565624365293    0.53278875292647
N          -1.34664797634725   -0.89741501577715   -3.03327198485894
H          -1.48798016880850   -1.76070825507030   -2.45002641348104
H          -1.72068487641800   -0.95433672629970   -3.97402006627117
H          -1.69900110729026   -0.08633648448007   -2.46584598209141
H          -0.29642086906653   -0.67232239949762   -2.95172429161992
