    26
        -50.45261715  Gyration_radius:  2.43246449475 Dipole_moment: 5.791
 S           0.13671127614963    0.74722026481803   -0.96701114120617
O          -0.53037237713958    1.71920891898215   -0.13032765246268
O           1.31545905189372    1.26541041544065   -1.62671538323265
O           0.50872337528707   -0.44903504236930   -0.14711519411599
O          -0.88696082094831    0.24359404594052   -2.00114092924116
O          -0.78382032950090    1.68220998576451    2.55903103513339
H          -0.78888726556255    2.25275177001736    1.77362268701081
O           2.54159710212620    2.25853137793950    0.42961052761114
H           3.47931915545449    2.19137780889280    0.23711442000514
H           2.06959625494292    1.99416053645483   -0.40470056383403
O          -1.14907596540290   -2.45331658945418    0.25718167036763
H          -0.87269385668254   -2.90643713407837    1.05565972381408
H          -0.48952610608075   -1.74101176168686    0.10111271702325
O           1.37027223564436    0.57523271716974    1.93644598360163
H           1.91755289829406    1.31285767274769    1.48525889253772
H           0.48684389408789    1.04540855665858    2.31788335269798
H           1.02043524765787    0.04057731313567    1.09758008368425
O          -2.28559425528381    0.03012056407932    1.09271261696538
H          -1.85922724366712    0.59331507369287    0.42634067154595
H          -2.16562748431952   -0.88249952904342    0.79424019677619
H          -1.45493465362943    1.00017156927121    2.33259714809559
N          -0.28843185973301   -2.20354277079760   -2.57398207949308
H           0.70987430590701   -2.34894646209135   -2.50902470148981
H          -0.74060870431481   -2.67435537822625   -1.79611207485031
H          -0.63212531067233   -0.70208220735283   -2.29682628170060
H          -0.62849857450913   -2.59092171588289   -3.44343574523803
