    26
        -50.46972947  Gyration_radius:  2.43071624885 Dipole_moment: 5.130
 S          -0.78451581734348    0.77284290399811    1.11958521059206
O          -0.70632159878496   -0.57029442062487    0.27616553031972
O          -1.19661525853743    0.34568933034697    2.43080928956300
O           0.59923767658062    1.28945087078965    1.10624553444402
O          -1.68760027452659    1.66182310387277    0.42833203626158
O           1.71747543260398   -1.77972684298179   -1.33038009038255
H           1.17195095430226   -2.56223197958708   -1.43000568332732
H           1.23193330685806   -1.06159120668613   -1.77452316826738
O          -2.59823707970308    0.92213729573648   -1.94688357284535
H          -3.51762783370701    0.66709621804547   -1.86747725623872
H          -2.33204697075204    1.25373802271057   -1.06073303212159
O           0.49376223968396    2.55641349716157   -1.20566822553817
H           0.64337331275202    2.22475305492096   -0.29628340668597
H          -0.37456728589267    2.96825923773864   -1.17178636251440
O          -0.03935087467288    0.16007421005204   -2.14070230394231
H          -0.47973500950213   -0.31238024775197   -0.65810753630051
H          -0.95911509490086    0.29686666097613   -2.42957121398068
H           0.28706532549407    1.07648453889817   -1.94193132170280
O           0.02158315229051   -1.92159865843094    2.72667036069148
H           1.27963849352379   -1.44893818136736    1.84540337901098
H          -0.46255650677481   -1.05408399473076    2.75178023200650
H          -0.57747637754099   -2.51868650410348    2.27387045295007
N           1.94297006182610   -0.89702131748975    1.22884210909917
H           1.50572700097578    0.08252443723340    1.19483485901836
H           1.94055760641352   -1.28294661288278    0.25621610977437
H           2.88049141932940   -0.86865341584977    1.61529810012036
