    26
        -50.45261732  Gyration_radius:  2.43257074932 Dipole_moment: 5.796
 S           0.85090110403019   -0.50471394846374   -0.72890773354093
O           0.52668341864684    0.02677608799953   -2.13704700171826
O           1.38501888256673   -1.84739382261303   -0.80109805491321
O           1.74775281053783    0.43983131691162   -0.10176282030584
O          -0.45207860428616   -0.52485516247637    0.00834798172596
O           1.40046302099675    1.73408696327373    2.24296269362147
H           2.05818626815902    1.42888479755882    1.59728456955790
O           2.06088680382860   -2.16150198501988    1.68138574040384
H           1.96946990100754   -3.09906677579828    1.86449077934892
H           1.92287743209081   -2.05726862432252    0.70218122058993
O          -2.40865159157805    1.14965082500264   -0.53719535365920
H          -2.96858809093855    1.21016698748386    0.23875300635634
H          -1.71515560895699    0.48532893001275   -0.32647610290749
O           0.00957777831897    2.53017141378360    0.10471877699213
H           0.78354978232899    2.26071923611312    1.68754561374475
H           0.62753119602004    1.87677504547527   -0.26158636673096
H          -0.86473577754578    2.30076019514522   -0.24047939811686
O           0.27014150251693   -0.49255271694852    2.37679333221334
H          -0.14181083938890   -0.50294289466832    1.40601415961859
H           1.02818411369941   -1.17260941906348    2.27578754856338
H           0.73465127746402    0.47017268759274    2.43949384431216
N          -1.85892222018905   -0.75538794051876   -2.74603836255877
H          -0.38774717840589   -0.32650582871486   -2.43045309597085
H          -2.39817534123604   -0.03549612087103   -2.27466728126359
H          -2.11967809222405   -0.78429854359269   -3.72217391999237
H          -2.06033192747388   -1.64873070325201   -2.31787380537782
