    26
        -50.45725975  Gyration_radius:  2.58785145136 Dipole_moment: 6.912
 S          -0.17334702244484   -0.83021946189756    0.57755460781860
O          -0.75589694517651   -2.11136180203928    0.89755530407846
O           0.55190727611766   -0.90409254220969   -0.72320655886174
O          -1.37784912355375    0.12356992270719    0.28610256272019
O           0.65052856838302   -0.25497043589343    1.61367943407799
O           1.98493656415317    2.58425094932663   -0.53768938360173
H           2.27392008116869    2.75807315404476   -1.43383509268609
O           0.27651371805150    2.09031636148415    2.84914611501568
H           0.37517606402702    1.16654191346928    2.54310918744641
H           1.16626483409468    2.41633285521109    2.99886325809082
O          -2.12232256218996   -3.53737591578398   -0.77008900391478
H          -1.64340501426721   -4.36250723613153   -0.86667058880824
H          -1.69020728729547   -3.06724151230402   -0.00764595001975
O          -0.55295791763467    2.49662880093565    0.33765553834937
H          -1.05177711855283    1.10632298979610    0.30097303579552
H          -0.39669151997024    2.57435422049468    1.30399068949149
H           0.34278220573279    2.56829154645886   -0.06027989495539
O           2.85610104074047    0.15262770237923    0.10077305970800
H           2.53044854288375    0.05576072080302    1.00500458594918
H           2.17525128662603   -0.31726423331568   -0.41305166705005
H           2.39326247283123    1.72270954827484   -0.27772809496620
N          -1.58374425749687   -1.28579957213705   -1.99511227771355
H          -0.56158586870434   -1.15468900777382   -1.58807341291961
H          -1.88527949064553   -2.26169969589268   -1.70627454543725
H          -2.12136543191537   -0.61096433316469   -1.44197374061711
H          -1.66066307497385   -1.11759493684977   -2.99277716696048
