    26
        -50.45725985  Gyration_radius:  2.58786366583 Dipole_moment: 6.906
 S           1.02613662712843   -0.01199183233133    0.00179109520243
O           2.33529665358853   -0.55842918112065   -0.26397668357837
O           1.01959739756561    1.30477123919907    0.59279107781164
O           0.29799342686376    0.03879807048667   -1.38134594003209
O           0.21704749709875   -0.97664447874543    0.80061980085330
O          -2.71528925454397    1.34488061808231    1.31481364263769
H          -3.41766075672848    0.76390579946239    1.60802173952138
O          -0.09350628899806    3.51665149529263   -0.42490498818538
H           0.45629978417846    2.78373060674747   -0.08235640583659
H          -0.41977496983247    3.98563709477691    0.34577610239279
O           2.75530210360721   -2.95815737807201   -1.12886078548914
H           3.28032808334584   -3.39409464820390   -0.45515765662660
H           2.74195793170805   -1.99685030314470   -0.87448534194661
O          -1.71721774278708    1.52552820959104   -1.17254526133050
H          -2.15315488744328    1.41040593979085   -0.29932378954613
H          -1.25296919285514    2.38784389978675   -1.10046207303399
H          -0.53762003041904    0.64606174044357   -1.30971541661893
O          -0.54573350436214    0.71016749573167    2.71842590773742
H           0.10501617876590    1.33496691513314    2.37327348965597
H          -1.94399318146182    1.16653270514612    1.90625178350339
H          -0.34843420289921   -0.09439841456785    2.20642355532219
N           0.15663244283321   -2.63085753889791   -1.09255730196550
H          -0.53761463195073   -3.36864852841088   -1.14930537959501
H           1.15529046615487   -2.98388785541565   -1.15950713974330
H           0.02490637010839   -1.91335188172638   -1.81253501633444
H           0.11116367132224   -2.03256979903508   -0.16114902479788
