    26
        -50.46112312  Gyration_radius:  2.68961356868 Dipole_moment: 4.727
 S          -0.13015534181176   -0.51357826349125   -0.62683817670381
O          -0.32170393507223    0.06460128692826   -1.92834749251823
O           0.66918209822417    0.36385917843780    0.25511188037647
O          -1.53636223313892   -0.64188578814393    0.08152085765258
O           0.40626219221518   -1.86133270999992   -0.63426244376478
O          -2.00006282710025    3.56935702419257   -1.24616527107120
H          -1.73499234467982    4.46078605417256   -1.01418873728026
O           2.75417051698576   -2.59247108237303    0.29359222180923
H           3.43696418055918   -2.23581350302463   -0.27640060999618
H           1.90143830139000   -2.43337455540369   -0.17591458242414
O          -0.85004517478135   -2.69534343857565    1.70882564520005
H          -0.51368806960909   -3.29353280066431    1.03309567614049
H          -1.30831543136478   -2.00176785845444    1.19919943451871
O          -1.54488296532699    1.81509342898749    0.72183771747128
H          -1.74746906655238    0.30884963544290    0.33470804590076
H          -0.58684454517836    1.71181068923690    0.61683246417468
H          -1.83531821033833    2.44593497233679    0.02190766305357
O          -0.05838524794151    2.54009096567864   -2.75594112003046
H          -0.08188980327563    1.61881686277789   -2.40901001400291
H          -0.26071808330160    2.45912295504131   -3.68991582832351
H          -1.30634582627600    3.22581073227383   -1.85718569781156
N           1.34577575753230   -1.25822637064661    2.11359075204273
H           1.09907298705623   -0.47553908349920    1.40794535814999
H           0.48533826586674   -1.87134646655014    2.15636577471355
H           2.10103117933038   -1.81038657643951    1.64776713460148
H           1.61794363658711   -0.89953525823843    3.02186935812307
