    26
        -50.46050450  Gyration_radius:  2.59209336487 Dipole_moment: 4.572
 S          -0.16821634140063   -0.31000533618136   -1.21975415834816
O          -0.26174248020407    1.18502937261961   -0.78098623158650
O          -1.38174737296234   -0.99743193036543   -0.85848828506141
O           0.04757351832667   -0.22555620085036   -2.67024287738546
O           1.00862233808259   -0.87051932307611   -0.55058619781425
O          -2.90911911398590    0.28493170204361    2.52687225998387
H          -2.86212904025050    0.14295877468914    3.47403637288517
O           3.25023155682274    0.31420201557722   -1.07609822202076
H           2.43233393941036   -0.15900852691336   -0.76430638408050
H           3.85894847864034   -0.37554962327039   -1.34579821491617
O           0.44853057405381   -1.22182557581757    2.04550762473565
H           0.77006282795055   -1.21856863014801    1.12362347335210
H          -0.37502317932810   -1.72773627546344    2.02773944202324
O          -0.51096889258356    1.23168516167054    1.71751746574779
H          -0.04500619264439    0.40146622913553    1.98460318030290
H          -0.38959504936384    1.23229044630717    0.24514694187156
H          -1.45054338103031    1.07797723131018    1.95507587190975
O          -2.16203462954817   -2.06476368257136    1.37498970109345
H          -2.77540839983522   -2.76393036924338    1.14420904619291
H          -1.87276846630366   -1.67010895458550    0.51368528165570
H          -2.74539784120296   -0.58503213167573    2.11008897924098
N           1.64371738505778    1.70391012671066   -2.62333675906271
H           0.92962962243318    0.84504262001068   -2.77412925269861
H           1.92611896025272    2.15866911606198   -3.48485223577713
H           1.14132010423822    2.33639187319215   -2.00111576360203
H           2.45261108539625    1.27548190084796   -2.09340106865209
