    26
        -50.46492027  Gyration_radius:  2.39772726845 Dipole_moment: 3.484
 S          -0.56487134964090    0.77684904413372   -1.10128297613267
O          -1.63031671206403    0.12211609438956   -0.35418300693576
O           0.69654722601761    0.76136917098187   -0.34768097947370
O          -0.32339078150372   -0.04065798177346   -2.40347836531348
O          -0.89232856907359    2.14954710591717   -1.45257464715992
O           0.93825086649335   -2.79922833320598    0.28970742377749
H           1.38158140715728   -3.64393836461621    0.37988451068817
O           0.71294548021683   -0.49100669086362    2.01477440309681
H           0.83736829525528   -0.02290152588381    1.16630375743287
H           0.66504885562478   -1.42181439182168    1.76333541594496
O          -1.44661888653188    1.04904916576604    2.09202951771171
H          -1.75579971370565    0.65575152026888    1.24482775981964
H          -0.70262631481087    0.45429495919154    2.34873580410107
O          -1.14244272519412   -2.26111503246906   -1.39963576232972
H          -0.61828720632289   -0.97613667554107   -2.17835587703499
H          -0.45393117769772   -2.59431526286666   -0.79026246932334
H          -1.67527414013009   -1.64900020876296   -0.86558123037341
O           2.22195031317341   -1.14679265969499   -1.35851429864243
H           1.52247978232637   -2.23488438904812   -0.27264470101431
H           1.92814274709706   -1.19867605907174   -2.27116868934778
H           1.77881522847105   -0.35230589791725   -0.99074360777496
N          -0.28755422091512    3.01375622933825    0.91128057918662
H          -0.57554896973166    2.80162609407947   -0.10390460793448
H          -0.52436142209599    3.96167636230080    1.18780283586214
H          -0.80440652191019    2.24255082357205    1.52226982250607
H           0.71462850948799    2.84418691359832    0.96905935865651
