    26
        -50.46492023  Gyration_radius:  2.39780687204 Dipole_moment: 3.483
 S           0.50289258539240   -1.26571728174618   -0.52972412193510
O           1.72198855241259   -2.05740191220317   -0.57309121837358
O          -0.72485898560741   -2.20771465362400   -0.69566969338389
O           0.38385534660157   -0.63870468649373    0.79388604813242
O           0.44662329905589   -0.26799495701649   -1.58964551445008
O          -2.69929952336202    1.19877558352232    0.28204092951028
H          -3.55785181658413    1.55169057233928    0.51993759131405
O           2.02643476081230    1.67518462586345   -0.81215137773381
H           1.48170841882889    1.04346683354703   -1.33394331679006
H           1.36580855633634    2.07715070425130   -0.19975570882171
O           0.01068795087557    2.00754817446064    0.88165569751643
H           0.12529046227355    1.04218660756760    0.97924004233971
H          -0.89979350766750    2.10513453492178    0.57617807796684
O          -2.09146999525416   -1.00668493910811    1.64669360830388
H          -1.13108870580504   -0.91546602632044    1.46729674605352
H          -2.53182879619118    0.43687022741904    0.88819954176507
H          -2.35258133680751   -1.82109176671646    1.21022980914757
O          -2.18331458527154   -0.43270920675358   -1.84947599058047
H          -1.41721097381779   -1.64776493405158   -1.16455993474156
H          -2.47785549732369    0.20894790297128   -1.17269025132285
H          -1.30937830733670   -0.11600316174035   -2.13187012955709
N           3.10164773441545   -0.19589802718490    0.58092856299542
H           2.68996643010966   -0.14664269900550    1.51070119582354
H           2.66079052560108   -1.04970047891588    0.09598042439462
H           2.74449304572579    0.68024236263336   -0.00215809342976
H           4.11434435258848   -0.25770338861735    0.62176707585458
