    26
        -50.46050465  Gyration_radius:  2.59228465038 Dipole_moment: 4.554
 S          -0.91002346177880    0.87716311761870   -0.11648012514571
O           0.46094427425493    1.30130298486612   -0.41272233109624
O          -1.09688232163382   -0.52418016200563   -0.77791863785626
O          -1.15883012263770    0.78152365123384    1.29932898302468
O          -1.88120978325159    1.72028314742376   -0.82620072866706
O           0.03988363598378   -2.63219997530688    2.82946652155724
H           0.81063540729114   -3.05799905468758    3.20903489631315
O           2.15559693123931   -0.12020117355942    1.09802324820913
H           1.80571652805446   -0.00393676099613    1.99155382931879
H           1.66421326538034    0.51530701302941    0.54301046798306
O           1.05305783942304    1.47513565603502   -2.92757195231677
H           0.93905807225022    1.37358354365661   -1.94427914472300
H           1.42164775598724    2.35101787642833   -3.05401596038677
O           0.35634724979513    0.03416268311310    3.26946402937007
H           0.09727065203020   -1.68744509762511    3.07780425567251
H          -0.22953596950031    0.33153505088299    2.52807939077892
H           0.03152502737603    0.48515605743783    4.05012263839436
O           0.58773329978485   -2.08290486015939    0.24083810847037
H          -0.42870344619928   -1.19389340889603   -0.35713062917365
H           1.31860432232977   -1.46212669602866    0.48228407184141
H           0.24807364132304   -2.41472528494582    1.09952495688839
N          -1.47484011556952    0.78098302489809   -3.11200379103016
H          -0.46899508272493    1.06946135824517   -3.26592625081802
H          -1.75456312842624    1.27260695882113   -2.13709191140924
H          -2.08387166013009    1.02681807709890   -3.88496208935589
H          -1.50285281064568   -0.21642772658454   -2.90223183583722
