    26
        -50.46507293  Gyration_radius:  2.55427099663 Dipole_moment: 4.273
 S          -0.93449174285723   -0.25179754750890   -0.22556175206399
O           0.51566512884799   -0.47729544699629   -0.29817125733904
O          -1.22481399909835    1.11248816398382    0.19244674639344
O          -1.55171597059995   -0.58826220163339   -1.50314402574592
O          -1.49209068679443   -1.22550391809718    0.84379030034077
O           0.53351217592090    0.28727044240732    3.72322434721404
H           0.69589039214397   -0.03752649531225    4.61004197776066
O           1.83718578583896   -1.11221091806279   -2.49288983844127
H           1.45152966083482   -0.91441923736316   -1.60748571080608
H           1.79753118301201   -2.06504228959715   -2.58807191543305
O           0.59508016228186    2.31405484445560   -1.24210523410241
H          -0.13621180167612    2.00880948151462   -0.65278114845387
H           1.39400399374755    1.96579817802643   -0.83693829051937
O          -1.92757236006748    0.46635420429541    2.67705656909151
H          -1.07510659958778    0.48520559389232    3.16922195356529
H          -1.83164180953595    1.12296144115021    1.96881530433634
H          -1.75313543187508   -0.64453405289699    1.63924829027992
O           1.09143355510737   -1.68214725549676    1.99248737698776
H           0.32214781396370   -2.25677682434321    2.03466836498532
H           1.00715886377348   -1.22089230675309    1.13209090700536
H           0.86015719652481   -0.40882410578560    3.10798782839244
N          -0.03806584158501    0.63843369275050   -3.17601862192839
H           0.76945572080001   -0.02367133116634   -3.22484445708887
H          -0.37056785130745    0.93509446500931   -4.08645782823641
H          -0.78772438719897    0.12268038350767   -2.60078312364413
H           0.25238686940567    1.44975303001438   -2.55582677256054
