    26
        -50.46507267  Gyration_radius:  2.5552005915 Dipole_moment: 4.281
 S          -0.11139299406394    0.35896434504124   -0.91843126324830
O          -0.76879026765884    1.56845284026001   -1.39939295816009
O           1.33681298218260    0.49816599455064   -0.85599194562312
O          -0.65564913747244   -0.01593763403206    0.39389865863267
O          -0.45558429093270   -0.79162729090895   -1.89813259091937
O           1.56958797979419   -3.43654249026088   -0.00213102966985
H           1.57936134750618   -4.39075518000574   -0.09000854842271
O          -2.34776068106646    1.44196575134796    1.80053805904171
H          -1.74897179179617    0.79824399083112    1.35478779720670
H          -3.23258208949545    1.22408748923408    1.50393393990989
O           1.47268198556837    1.74021991841556    1.43563212605080
H           1.58196607976867    1.28739472147677    0.56474276687095
H           1.14218284639359    1.05622628491373    2.02440716713820
O           1.86017566992329   -1.79537844980029   -2.10056948968429
H           0.42750237699473   -1.25907678353075   -2.09887139120422
H           2.15743320556499   -0.96082054615472   -1.70419372540375
H           1.88186072092736   -2.45513212665689   -1.37002565305761
O          -0.98065770759508   -2.64204686554213    0.22278265349500
H          -1.31626119159479   -2.67290022064731   -0.67731883518151
H           0.63925347267875   -3.18528789811543    0.20041828693905
H          -0.87848078506446   -1.68659455497064    0.41455448501562
N          -0.63545102640882    3.11211341286331    0.64834464184864
H           0.26827804071581    2.74009850149104    1.06352119168577
H          -0.71653261605706    2.60790403199208   -0.29935818857929
H          -1.42275778435482    2.73620085961263    1.22400067647381
H          -0.64622435446365    4.12206191862418    0.56286317884171
