    26
        -50.45491436  Gyration_radius:  2.43186584777 Dipole_moment: 6.961
 S           0.18099692587665   -1.07439193715909   -1.60772910983668
O          -1.37780226657883   -1.15921855412853   -1.39963268155739
O           0.77689951767874   -1.37145789630937   -0.30676793475104
O           0.56546686681565   -1.94051572425013   -2.66456355953731
O           0.40770177888134    0.36847798006401   -1.92715432670299
O          -0.35708402241027    1.41741617427405    1.87045547137463
H          -0.25177309710368    2.02583478542907    2.60205162772964
O           2.49981298959675    1.78558794037612   -1.08569210502509
H           1.76819336408621    1.28108349065509   -1.49885615073106
H           3.29525558704665    1.53346034134040   -1.55690746746518
O          -0.48290291798436   -3.06659634986368    1.29153537997011
H          -0.68585929280564   -3.85454561903374    0.78549408942989
H           0.12830291600553   -2.53665684667080    0.73638152319140
O           1.91387997675063    0.47545239936599    1.21077068984035
H           0.57264797661636    1.04545702442944    1.67350624858197
H           1.60433271448051   -0.31748251116455    0.72343911810923
H           2.26981059649501    1.06338277442252    0.51524767764932
O          -1.90189109912312   -0.80973732553552    1.12532215126348
H          -1.35107755317203   -0.15183055535573    1.57682036579601
H          -1.56411334105388   -1.06736202570020   -0.42581367026849
H          -1.54696048426764   -1.68021668661094    1.40398577802016
N          -1.31630817439585    1.63196806006597   -0.60360413090663
H          -1.49285290482646    2.55770073035230   -0.98049622681206
H          -2.15959414396910    1.06086831974315   -0.62081019483668
H          -0.53700765423861    1.09959317846588   -1.22247410854342
H          -0.95807424840028    1.68372881279784    0.38549152601745
