    26
        -50.46294021  Gyration_radius:  2.65592653272 Dipole_moment: 5.944
 S           0.25549582428647    0.48220843853342   -0.36669266334649
O           0.82579421675273   -0.24083826253033   -1.50359110097707
O           0.21102460410390   -0.40769872250671    0.81213221643817
O           0.88079707430341    1.74570811517938   -0.07728585293860
O          -1.22942118903699    0.70222257199932   -0.77889335041025
O           1.03718973105767   -4.10206547725437   -0.71576089456661
H           1.43001295649190   -4.52555969506782   -1.48062668545065
O          -0.30911078288293    1.55049362004850    2.57062082684657
H          -0.09142893065224    0.74673123008512    2.06395891245515
H           0.37251586410727    2.18627516357219    2.33546901062988
O          -0.42312609090670    4.07639216006386   -0.11046388914648
H          -0.39080283037385    4.41936676359417   -1.00449495792884
H           0.16377850767523    3.29311102096712   -0.09865467134231
O          -2.22465650172581    2.33177667736370    0.87464654157117
H          -1.79350754070478    3.15197827249166    0.55979619066415
H          -1.70102714769075    1.35291393351277   -0.12931203737183
H          -1.71117214842676    2.07557753301114    1.67381213800466
O           2.41148764190521   -1.92030105141422   -0.12587697234799
H           1.67857365267922   -3.40190710098748   -0.42837292737135
H           2.03852708637883   -1.28836445059416   -0.77047769172153
H           2.10152141533420   -1.59454077729761    0.72564520752296
N          -0.74880643630179   -2.16272000568723   -0.81822407491768
H          -1.73787352119089   -2.25810750941849   -1.02319010934591
H          -0.57344502337548   -1.65485729305935    0.09365722017294
H          -0.21313715904944   -3.07560121972314   -0.81684886240304
H          -0.25920327274810   -1.48219392485975   -1.46097154271165
