    26
        -50.46507303  Gyration_radius:  2.55410159054 Dipole_moment: 4.270
 S          -0.18707257306196   -0.07432695512381   -0.97503343563696
O          -0.62484990690813    0.13597752509720    0.41175275669063
O           1.12954759590167   -0.69526897705655   -1.01230861967050
O          -1.19012414554164   -0.84704146317970   -1.69842681267158
O          -0.09343230850836    1.32329674536797   -1.63861068019681
O           2.61314036501161    2.61406692444021    0.75425621121368
H           2.94446420160313    3.50137102108851    0.90006292623200
O           0.75928350076110   -2.41507748273534    0.91591077463132
H           1.04572978377930   -1.83284419825996    0.17134378649064
H           0.65129822357515   -1.81884222401459    1.66196869966531
O          -2.76158159852492   -0.96415239531921    1.50316543716865
H          -1.96511167760037   -0.46989236662285    1.19808044960305
H          -3.51140825538246   -0.40360628088469    1.29816078142307
O          -0.06343545809753    2.68412249492893    0.88231837012918
H          -0.28887256731150    1.73161110448894    0.83701816215749
H           1.64427317790076    2.64700357164380    0.92722269323610
H          -0.33153257588885    3.03654586906912    0.02927304604552
O           2.43027574853244    1.52675769241253   -1.68855403430245
H           2.41981993366973    0.57132099125049   -1.51846342597227
H           0.90165606523178    1.50824759132962   -1.75666677720571
H           2.63879209424408    1.94525102841002   -0.82211975948716
N          -1.65317370302100   -2.78547623721116   -0.07891217426665
H          -2.29337355277153   -2.31749698789814    0.60211732788341
H          -0.69367586050319   -2.84204409648697    0.37243383191288
H          -1.99394836346144   -3.68497418483926   -0.39870012716784
H          -1.52668811361896   -2.07452871992218   -0.87728938788665
