    26
        -50.46243636  Gyration_radius:  2.53458988675 Dipole_moment: 5.579
 S          -0.00795647062073   -0.68838976250981   -0.88644305635080
O           0.51327887525183    0.57830620286999   -0.32471724045234
O          -0.41166966535817   -0.38681402238270   -2.35653049665672
O           1.02149429918393   -1.71035684226948   -0.86228805065497
O          -1.22024047190558   -1.09163289860648   -0.20582378334271
O           3.05494344227807   -0.09424170149190   -1.26996047653757
H           2.45617715855565   -0.84556761164735   -1.06590133436880
H           2.66111383058076    0.64809001001986   -0.79975177478543
O           0.91918930892518   -0.85015783025386    1.80637389999687
H           0.87459686743147   -0.17088479373454    1.09475621684708
H           1.00494640470780   -1.67120075020992    1.30773593386865
O          -1.28633957271384    2.42621735875808    0.14964203961147
H          -1.50609674716748    2.80657782033320   -0.70235896215234
H          -0.55632635466168    1.78489056427045   -0.02514187110420
O           1.83867448714852    0.00621971369475   -3.60566712021729
H           0.41581760543484   -0.19177298713487   -2.87886467183396
H           2.43756390986193    0.05605844982947   -2.81676081828119
H           2.05808933412192   -0.81427900236047   -4.05226954225308
O          -2.78478900867029    0.47247704253722    1.10181638393830
H          -2.36603593687479   -0.18405876874853    0.48543824931224
H          -2.03612880557868    0.08382290654956    2.23363530246188
H          -2.39447079490250    1.33162746064600    0.80971614106788
N          -1.34289843576769   -0.28609555724074    3.05385441667327
H          -1.14830800587399    0.45442333022021    3.72010743611777
H          -0.43804161468723   -0.57698604195551    2.56858285619924
H          -1.75658363870881   -1.08627227919464    3.52082032289819
