    26
        -50.46347342  Gyration_radius:  2.63631632349 Dipole_moment: 7.103
 S           0.08588422626496   -0.46454496409020   -0.58964717348315
O          -0.09223008054656    1.06721971529957   -0.41349743716318
O          -0.36839315723643   -0.84263886775066   -1.90450600767127
O           1.51761596109433   -0.69704622864014   -0.37260910006997
O          -0.69606263502926   -1.11653082300846    0.47580649134908
O           2.07602317344374    0.41748160158156    3.37465372846187
H           2.92323129639580    0.51243203245729    3.81254595401884
O          -3.01676860805956   -0.99005606600952   -0.84820229316010
H          -2.71651565609110   -1.31723053309338   -1.70138765763982
H          -2.26008936749590   -1.12834787774129   -0.24912936956216
O          -1.43436766888159    0.88589666593835   -3.62222360688241
H          -0.71723117823413    1.32139339201375   -4.08460281978323
H          -1.02197884655488    0.17300440448301   -3.09038836508299
O          -2.42505701436894    1.58730927777225   -1.21505885697928
H          -2.87425756798244    0.73570528062571   -1.00929814177153
H          -1.05028663197171    1.33018876245066   -0.69318439278040
H          -2.25342567528567    1.54999279593794   -2.17758050077702
O           2.26579620386773    1.48706433894131    0.97553787154546
H           1.55526466448038    2.09405128168343    0.74917948832198
H           2.14195207105566    0.93930791488400    2.53193380657733
H           2.11272138382723    0.71846132300647    0.38767851697849
N           1.26655014600597   -1.68547327143956    1.97777334676520
H           0.26553133476667   -1.52825334566603    1.64354711661806
H           1.43136309414330   -2.63339425070882    2.29742174969240
H           1.73475204734258   -1.45987603104832    1.06038359903203
H           1.54997848508740   -0.95611652787606    2.68485402348633
