    26
        -50.46218815  Gyration_radius:  2.39324668276 Dipole_moment: 7.364
 S           1.25810542620342   -0.57801388949161    0.64896355840910
O           0.77313012015119   -1.34373823933262   -0.62591415879636
O           0.94428136594974   -1.32133675965084    1.83323126527499
O           2.69199616678437   -0.39798652967909    0.39942670740951
O           0.56134931570566    0.71885161285594    0.60958089317484
O          -2.32719355063911    1.49002744315696   -0.17822288537017
H          -1.62369007760337    2.07945185804527   -0.46153689857515
O           0.27001107698631    1.21044945752990   -1.90425119449155
H          -0.46154226586486    0.63975857056509   -2.15901027858449
H           0.34197579196844    1.12336648920747   -0.91543107596259
O          -1.71537429931168   -1.72109391787807    1.94122609080708
H          -1.91192830462229   -0.83666399869037    2.28624509258863
H          -0.74451196760331   -1.79134494506640    2.00705232443166
O          -1.36303606966121    1.00992891045569    2.39084854049662
H          -0.58267071300826    0.88898252774016    1.80277742073681
H          -2.25916763327054    1.43972646848543    0.78701975067890
H          -1.01536736269491    1.25733821900535    3.24838022405851
O          -1.73909455574395   -1.12296506185561   -0.62313237395614
H          -0.25291476176998   -1.31205862460163   -0.64678296732295
H          -1.90645608242237   -1.50133939650826    0.27675260346153
H          -2.02896745844044   -0.18773484353709   -0.55048058030713
N           2.63994584717739    0.05861261854320   -2.07232683959907
H           3.40913629940187    0.61193345354644   -2.43618617818002
H           2.58443094893406   -0.84558985531433   -2.53201270096739
H           2.75066501803844   -0.13264848549733   -0.96505850431252
H           1.70688771526441    0.56408690805212   -2.16115781512747
