    26
        -50.46259568  Gyration_radius:  2.71996273185 Dipole_moment: 4.458
 S          -0.28743094734006    0.10683840317740    0.57061695912171
O           1.25636219473077    0.08792379904280    0.28159065933184
O          -0.93553187042703   -0.14634173460233   -0.72970176399863
O          -0.59349858019631   -0.90856487918165    1.53893368197851
O          -0.55923464886887    1.46742771384275    1.02358182667087
O           1.18739571273791   -4.15572304474988    0.24332286724459
H           2.09225371788181   -4.47001618323802    0.28058964601997
O           1.17000474593568    2.77967961863589   -0.47106978020266
H           0.60982826153083    2.40370945004384    0.24580657002900
H           1.93355436551089    2.19682401312548   -0.49926875903718
O          -2.45560423188604    3.06986003095784    0.10772829454866
H          -1.88667265027856    2.42866058382772    0.59026659051674
H          -2.33700203265310    3.90992707675930    0.55475894302394
O           0.71662136817161   -2.94196282703109    2.56854351659757
H           0.28705927810316   -2.13005970490427    2.21850612478668
H           0.05871380203435   -3.34918159339639    3.13512656359997
H           1.00069261946195   -3.76073389312080    1.12796178880203
O           1.03754800031967   -1.94260185484685   -1.23691742711999
H           1.35785098594916   -0.73396663604214   -0.28527355842003
H           1.05992635148593   -2.80310685646878   -0.75213039083889
H           0.10862880892694   -1.68156799865061   -1.29974393624147
N          -0.96865892651057    2.13060544959234   -1.88988043269734
H          -1.69588449787959    2.64444237686609   -1.33967240327419
H          -1.12060407410572    2.17816373897089   -2.89078610630259
H          -0.03405199308556    2.50483103987592   -1.58558394412653
H          -1.00226575954662    1.11493388151229   -1.50730551001414
