    26
        -50.46218808  Gyration_radius:  2.3933579827 Dipole_moment: 7.369
 S           1.21179749839386   -0.92921584014192   -0.04875601868775
O           0.57131772244619    0.05909728683510   -0.93306227637643
O           0.73496918844890   -0.55869632726678    1.39427818176712
O           0.83085066768553   -2.27105375672620   -0.37700261533265
O           2.65896459660821   -0.70003774684031    0.01363021458412
O          -2.25608338724532    1.30425149936065   -0.93267945444971
H          -1.51948389838110    1.88562829016972   -1.13747312423642
O          -1.84502823409447   -2.49913844502915   -0.19442299536588
H          -0.88029563492790   -2.64402985109244   -0.18484731634518
H          -2.01491085896784   -2.09985916438149   -1.06132560561276
O           0.37787052047683    2.18255816154110    0.51514549965291
H          -0.36860120150397    1.99175577000761    1.09143369429019
H           0.41573418263306    1.42472917454434   -0.12917056228161
O          -1.39099522324003   -0.88451628416921   -2.42409934154510
H          -1.05869993011536   -1.32636272641459   -3.20634215440197
H          -2.22020626334746    0.58995872573403   -1.58633992260646
H          -0.59934019027918   -0.59788001770972   -1.91381262066757
O          -1.76515606181218   -0.27807626286800    1.21855765089803
H          -0.28775712316161   -0.47044373337723    1.37934958570261
H          -2.01756031042945    0.35297901906878    0.51009422545265
H          -1.97549952315094   -1.16844151421033    0.83932711000027
N           2.70274772445040    1.35866190150147    1.45632084432609
H           2.77054818505496    0.44148861185974    0.80156488187932
H           2.62619137728214    1.04012992919812    2.41789706879585
H           3.50470494772272    1.96819398502189    1.33149728416927
H           1.79392123938200    1.82831931537535    1.16023776638315
