    26
        -50.46294018  Gyration_radius:  2.65579423183 Dipole_moment: 5.940
 S           0.01657117877946   -0.26503596186260   -0.60125416153059
O          -0.64374237768278    0.41387203565542    0.53318057963309
O           1.49616582285326    0.21734510393442   -0.57137035607635
O           0.11488718000043   -1.69797491929899   -0.32294876539960
O          -0.58658332217792    0.06637398074639   -1.86523839602130
O          -0.73133951193279   -2.42707353357501    3.46185832124829
H          -0.66959612524915   -3.37509369525093    3.58856485774788
O          -1.04547151082771    2.72333691362383   -0.77090101106585
H          -1.44918025298999    2.40192726577128   -1.58196418245570
H          -1.00102547400916    1.94580209530960   -0.18462546811292
O           0.66445337430914    1.44914057260358   -3.77717117221826
H           1.14415287509262    0.82630890916362   -4.32487004200279
H           0.11918046223245    0.91079737467941   -3.16802538870809
O          -2.06608238553102   -1.93091896464917    1.23287851622912
H          -2.25092573103184   -0.98641531653016    1.20158322082400
H          -1.36351155578047   -2.05635530112479    0.56606947831206
H          -1.38042784714221   -2.28919369721789    2.72433811073021
O           1.52755932451994    2.57175061375443   -1.48476775772397
H           1.38916825028273    2.37073905626946   -2.43245795911073
H           0.64682778608660    2.87339563307950   -1.16619108905742
H           1.57651669481895    1.18617161254801   -0.92216212833907
N           0.93881649293588   -0.98691213392686    2.01351698218361
H           1.87148606870704   -0.68860276887977    2.27905127934775
H           0.43336083093827   -1.55030661105843    2.75336223541213
H           0.32662123315692   -0.17698053653100    1.71423778611248
H           0.92211850962005   -1.52609773724465    1.10530654005444
