    26
        -50.45491415  Gyration_radius:  2.43181156777 Dipole_moment: 6.961
 S           0.34491725141811   -0.05920975130838   -1.90993969456937
O           0.72696838711834   -0.35385984410031   -3.24486846340496
O          -1.09859492528338   -0.34286294337732   -1.64244002170348
O           1.15358498313245   -0.69641149130098   -0.87274646984795
O           0.46217585303995    1.49121591189172   -1.65969128536064
O          -0.55811147438780    0.21217599479095    2.29581423401935
H          -0.81892982054883    0.04858544056344    3.20232146499083
O           3.31524045745915    0.56679309953480   -0.00921917446749
H           3.83018961252120    0.82804127801354   -0.77390123673442
H           2.62236196171248   -0.04242250495371   -0.34299137225692
O          -2.00489698777424   -2.53237625987292   -0.42630852786334
H          -1.72715399917939   -1.76176634522666   -0.96441848170900
H          -1.94194961582876   -3.29513013342255   -1.00305378272677
O           1.14593918605615    1.88804535834670    0.81823224457914
H           0.76582518312109    1.63073867710053   -0.72127415478591
H           0.73594514145282    1.28876212631993    1.46085613559972
H           2.06326451057493    1.56048529154411    0.70654999794012
O           0.09960778247460   -1.98248633180523    1.18673230540436
H           0.62255599889582   -1.61564669836313    0.44238937568940
H          -0.27205587771108   -0.69012174032006    1.91436914052673
H          -0.70814730083461   -2.33595329727439    0.76395599244549
N          -1.77354884446911    1.26076034394342    0.17185619598682
H          -1.41354256642988    0.86079658854340    1.07726710325794
H          -1.51209278749824    0.53423196032379   -0.65182195931569
H          -2.77738281014179    1.40657442942388    0.20710684424356
H          -1.28216929888902    2.13104080098608   -0.02477640993754
