    26
        -50.46460250  Gyration_radius:  2.41099156997 Dipole_moment: 2.668
 S          -1.18559200133141    0.71293391768931   -0.19135333368918
O          -2.25434842360788    1.81260974102117    0.00347970273471
O          -1.86643463648516   -0.58846884173709   -0.20059394482993
O          -0.50042583375842    0.97397264916339   -1.44158465260087
O          -0.26139064554485    0.77823886915014    0.94820774460156
O           2.95368437590258   -0.19607672027777   -0.72998969703386
H           3.90163998372699   -0.07757565206806   -0.79877596367158
O           1.28122006962956   -1.36140784670466    1.08752258614173
H           0.71835109565553   -0.56071769398114    1.20291163142238
H           2.04823024132097   -1.05609817507300    0.56680412060740
O          -0.19612844083279   -2.37880373719255   -0.66646910036218
H          -1.00058904282338   -1.73443605478560   -0.50194758354044
H           0.44620458054682   -2.13262472473405    0.12735303644630
O           0.95344528320827   -1.00394700366756   -2.41443350144921
H           0.28262874280117   -1.95182885181210   -1.50562775713412
H           0.38163824094295   -0.21827147179818   -2.25842964790275
H           1.80347759854113   -0.78812616428188   -1.98604148870502
O           1.70540201815803    2.06407756061055   -0.29271368524111
H           1.07291437354555    1.73378444226459    0.37545523873185
H           2.56437576603254    0.70925536204512   -0.56720714437534
H           1.15282013876729    2.15140606293763   -1.07995184721753
N          -2.88053254089516    0.59808749725801    2.20602331739577
H          -3.57265973811628    0.57844319705225    2.94411978817308
H          -2.67173594601717    1.54560104529003    0.87152406464669
H          -1.95681663325860    0.66115188147421    2.61682957201679
H          -2.91937858610738   -0.27117928784139    1.68488856484734
