    26
        -50.46460239  Gyration_radius:  2.41114275226 Dipole_moment: 2.670
 S           0.31144468655529    0.41496183383797   -1.29592278006574
O          -0.37470281106025   -0.81410193266807   -0.87717617455949
O           0.26583615511408    0.47908636621594   -2.83963010281336
O          -0.35643660184091    1.59376639355055   -0.78108563274541
O           1.71994757415346    0.35858181888495   -0.88290885379310
O          -1.91693697425053    0.33557457172938    2.34729645811011
H          -2.66188378791676    0.30074229876544    2.94833263585255
O           1.84212267087905    0.40924564294551    1.60613601186644
H           1.93962709876768    0.41917094419538    0.56712477584874
H           1.22098178214506   -0.42402063887215    1.75874832006832
O           0.08949063393826   -1.38503670458191    1.65945926216902
H          -0.09346031978480   -1.33842635093831    0.69214054316061
H          -0.66519097212338   -0.93076909492919    2.07978801679329
O           0.04950424170748    2.14910368042478    1.76831254233415
H          -0.11626517928456    2.15528354340411    0.79820206487300
H          -0.69577653892367    1.64742955097944    2.14975580862546
H           1.19970478202603    1.22679896706152    1.79235826988694
O          -2.67042570573978    0.31588138348861   -0.16058055480740
H          -2.29582180851492    0.32637330055726    1.42312620378429
H          -2.34963963816759    1.16915067244357   -0.47972578885857
H          -1.99169436332549   -0.30405219718873   -0.49309931165432
N           1.58359617160934   -1.75291383128965   -2.81969980201456
H           0.89848126290079   -2.27638951869911   -2.28829043781958
H           2.09364937737237   -2.38744126531775   -3.42095070515549
H           0.75061359333982   -0.35634920934757   -3.09704910886691
H           2.22323469042171   -1.33165023465288   -2.15466166021650
