    26
        -50.45940087  Gyration_radius:  2.54126475314 Dipole_moment: 6.836
 S           0.93640975885519    0.43104318386995    0.27120304256808
O           2.11841420992597    0.55267961635753    1.13443526640738
O           0.75600641554914    1.54830211515135   -0.62310114441297
O           0.94345397221239   -0.85464330673159   -0.43269222377778
O          -0.24742811030815    0.36944896426880    1.28188435604492
O          -2.17128115707589   -0.26348692924231   -2.39964908107206
H          -2.33806155119083   -1.20268085921864   -2.48771771749666
O           1.18593206257261   -2.92006356604681    1.10695919791968
H           1.93009561613574   -3.41161457778943    0.75449247592527
H           1.01759953322699   -2.18848086725755    0.45329327115845
O          -1.36469973075016    3.16723466183436   -0.70899531016552
H          -0.50921207026097    2.69774624634672   -0.63159107357735
H          -1.48402004618271    3.34982420970761   -1.64315990253541
O           0.43301431978978    0.02119471231157   -2.88568477344097
H           0.64782855546382    0.92968345091566   -2.64779751105147
H           0.68733055079650   -0.47792919618548   -2.08560334233314
H          -1.23401729008770   -0.12724941636324   -2.67898665025999
O          -2.38401541304713    0.80381448354024    0.04501257113182
H          -2.36968378586311    0.36402337536760   -0.83672472973655
H          -1.14573481871514    0.51529877062431    0.78103118174969
H          -2.24318319049769    1.75575861788143   -0.14708487587298
N           1.37317165213289   -1.03002626030773    2.92768321274506
H           0.42435405875488   -0.69537745410552    3.09085564038828
H           1.80827050291429   -0.28834181997045    2.19996298642987
H           1.90183326415051   -1.11637507950320    3.78908441733666
H           1.32762265148739   -1.92978308547559    2.37289068592387
