    26
        -50.45940092  Gyration_radius:  2.54183725963 Dipole_moment: 6.824
 S          -0.22973047806559   -0.05486554496633   -1.03871105259884
O          -0.40585836048679   -1.28909248466296   -0.10474949097705
O          -0.71672285296500    1.10395721863279   -0.28462357534529
O           1.15598182092334    0.07612225724693   -1.41706342978240
O          -1.12303923984198   -0.34795760534501   -2.16707585250315
O           2.10111515284903    1.19924720617609    2.16501025838015
H           1.56450956816700    1.63770701991482    2.82639771961205
O           3.18194196653105   -1.41689566257560   -0.52616131543268
H           2.46852729854215   -0.93278839234584   -0.98974553791561
H           3.91117011270441   -0.79932150300158   -0.44265312038193
O          -3.17636132642952    0.92259078853807    0.49846866329360
H          -2.20841145117424    1.04219082299255    0.29950548387531
H          -3.60427782718407    1.71657802294034    0.17278588367246
O           1.55592325395339    2.46397854419821   -0.11559942504958
H           1.96707449173375    1.93956006648081   -0.81131063925150
H           0.63051882936306    2.15166790563890   -0.12732164123360
H           1.98949815424543    1.72233515143349    1.33482061372232
O           1.48084116128027   -1.32861621834719    1.54488389298677
H           2.20590485500194   -1.55806107003683    0.92465005984818
H           1.69057035302828   -0.41579300767202    1.85116990928220
H           0.35116771797904   -1.30411423129391    0.60684428698906
N          -3.00380311862025   -1.33626003023360   -0.83960741712256
H          -3.78371623780815   -1.78451577629690   -1.30838973225561
H          -2.22350926645195   -0.93018169105382   -1.54322351530853
H          -3.28854251812869   -0.49404669870264   -0.26612227842843
H          -2.49077205912965   -1.98342509765901   -0.24217873808525
