    26
        -50.46428345  Gyration_radius:  2.66451985259 Dipole_moment: 4.532
 S           0.82766380738557    0.02948594815328    0.06107844831452
O          -0.23296404703137   -0.34376571643915    1.01923578346276
O           1.62499109858146    1.19664843560230    0.67315496173117
O           1.73379662978166   -1.07848587800355   -0.16710484347597
O           0.22567718615902    0.48064185720744   -1.19348839940905
O          -1.59662605081218    3.74143235429321    0.56504094146510
H          -1.31463202803702    4.64531687661231    0.71538257360346
O           1.58968541597641   -3.46440496720945    0.90559338896578
H           1.80152553548632   -2.59627701527819    0.48413564505341
H           1.93626379999996   -3.41097711940324    1.79761444219588
O          -0.06850232368806   -1.88765826565973   -2.26669207011509
H           0.85032382809279   -2.16474077319739   -2.32510623343351
H          -0.01676914172528   -0.93985835375482   -1.99598856215350
O          -0.44477042569233    2.97318423788730   -1.71796003889654
H          -0.99808713322492    2.87344097490209   -2.49463205609938
H          -1.20720172448545    3.47780539133950   -0.30039775170890
H          -0.11572955708079    2.07011287363356   -1.51227308140533
O          -0.23416747675182    2.08651580245382    2.16109001588475
H           0.98611634955772    1.67404968237563    1.29527424515752
H          -0.79625194506942    2.70845690351986    1.64050752124155
H          -0.60727310937839    1.20297183872822    2.02487654369945
N          -0.82535916261453   -2.68595388972611    0.13243335066206
H          -0.71893990687509   -1.71790255672357    0.58462512271719
H          -0.64975169213806   -2.51052181945611   -0.90017778875881
H          -0.02139478791857   -3.24796456491799    0.50101266156709
H          -1.72762311850732   -3.11155225693402    0.31276515973150
