    26
        -50.46584232  Gyration_radius:  2.39856799167 Dipole_moment: 4.270
 S           1.01930584682804    0.17766391449323   -1.56721380646892
O           0.12536818150925    1.21803574350147   -1.00735851276164
O           0.72710937302946   -0.04225987074474   -2.96649932990451
O           2.39297458909872    0.41610289218522   -1.20176015705828
O           0.55506582665074   -1.17160414436123   -0.88524536328588
O          -1.41589665176545   -0.32812271471644    1.97542392922914
H          -1.98412954154655   -0.21846866628246    2.73858863304413
O           2.56343337758938    0.95255338250752    1.34574618664293
H           3.49502829750200    1.04749221804267    1.55048881081262
H           2.51943385669320    0.82382481848510    0.36248451041886
O          -2.09708198742689   -1.70609811288380   -0.31747943461019
H          -1.22474761994394   -2.09063173794012   -0.47550484771063
H          -1.99180208625966   -1.21007801823174    0.51738759173393
O          -0.06906732226358    1.86439533132919    1.53646679600043
H          -0.03661923727603    1.78206979527363    0.55961024872418
H           0.85571222258295    1.75922104902179    1.79920258372465
H          -0.97576329513859    0.55612966002760    1.82157594554975
O           1.13959347676451   -1.33159595973699    1.61105297677304
H           0.25515753453859   -1.09079638961618    1.93540146414253
H           0.87996967190165   -1.26069462819453    0.06462840875265
H           1.70555388960714   -0.54121563865203    1.71232200059221
N          -1.74545126475447    0.07273086406177   -2.24831952323786
H          -2.04852885521019   -0.69001849311418   -1.57591071240048
H          -0.91964307567884   -0.23353460389573   -2.82851016671840
H          -2.50718998681391    0.45379243635679   -2.79873074353060
H          -1.21778522021303    0.79110686304573   -1.65784749843201
