    26
        -50.45895653  Gyration_radius:  2.39191882027 Dipole_moment: 7.099
 S           1.20066526648458    0.76652094095248    0.69412665580289
O           1.95408641082366   -0.40247632237480    1.11161206581715
O           0.76535900048188    0.59108734296372   -0.70929255465534
O          -0.11844983659620    0.82703432813244    1.53703425276943
O           1.83975501702715    2.03706939224596    0.90410088021618
O          -0.86806574108345   -1.63363631167927   -1.73636078513260
H          -1.05942922952819   -2.52132622616556   -2.04458998824222
O          -0.21062920784923    3.55862252246075    0.31688557325695
H           0.54524915504008    3.01119182078597    0.64778966854265
H           0.19392713588140    4.28028572460914   -0.16865079080273
O           0.41924107015953   -2.54099635395696    1.71155859248108
H           1.01708322013057   -1.76858589448402    1.71991788581673
H           0.79608803109602   -3.13369834909484    1.05596023131544
O           1.71801974176707   -1.98754320054809   -1.02361796596927
H           0.09347822882367   -1.62607166331690   -1.52126475020367
H           2.26519372642195   -1.60384515629121   -1.71068678540660
H           1.84790761117915   -1.40414673131213   -0.24409595999288
O          -1.63362556185987   -1.10841263617478    0.76744584680474
H          -1.10901645186522   -1.78312396051316    1.24813593801870
H          -0.70735495050350    0.04843867993751    1.31148738942317
H          -1.43914752912647   -1.28317310054828   -0.18214782919204
N          -1.55294781426858    1.54162740268318   -0.75337601788869
H          -2.02820674773613    1.65501526613822   -1.64217902071622
H          -2.10815814644683    0.98715916803204   -0.10330963115702
H          -0.56477709413407    1.03827440095733   -0.86661338364687
H          -1.25624526431351    2.45470892658465   -0.31986951726689
