    26
        -50.46147047  Gyration_radius:  2.59205112849 Dipole_moment: 4.230
 S          -0.39903894632200   -0.29567823945516   -0.55641336973621
O          -0.85770179720661   -1.66172977065737   -0.63334960149262
O          -0.54409463329546    0.44449292020421   -1.82177527346339
O          -1.32131425035099    0.49422950050848    0.44345393382150
O           0.96022526375489   -0.15744551994246   -0.05262388925105
O          -0.59022874572411   -2.38218634770302    3.14783686171370
H          -0.66808961611141   -3.23700929462435    3.57415680906829
H           0.09527215393207   -2.48672860763616    2.44447124417618
O           1.81873461203379    1.21127011263814   -2.88141098323370
H           2.34349629529915    0.44429959858210   -3.11543908050889
H           0.94252119020203    0.86672516495300   -2.61646971968979
O           1.01015829398442   -2.62423436818721    1.03082339494813
H           0.31737933305215   -2.63851185291345    0.34943094334957
H           1.41381065918061   -1.75579128909084    0.88848730770927
O          -2.49482826763791   -1.49548111691417    1.49430735124666
H          -1.89667712258901   -1.78904660843981    2.22106345552046
H          -1.85232711841450   -0.20393838928526    0.94972334031500
H          -2.19621368328586   -1.96865828624044    0.70269902606575
O           2.02462296972560    2.21543419459636   -0.39694776356309
H           2.25318972289571    2.05514006774135   -1.33541828540007
H           0.62860640449021    2.72328265572322   -0.53880508005843
H           1.77963496000393    1.31422559523717   -0.07915922023725
N          -0.45121774758841    2.77618474243546   -0.75080780493701
H          -0.98398532555141    2.66394452581820    0.11038543405185
H          -0.61273966596208    1.87503419580588   -1.31818736657906
H          -0.71919492851293    3.61217642684712   -1.26003167382910
