    26
        -50.45244919  Gyration_radius:  2.65750901106 Dipole_moment: 6.214
 S           0.81893001842557    0.84077768420624    0.55650090790907
O           1.37182702898752    1.53744192792664    1.69386972258950
O           1.73214291462525    0.62044865344612   -0.54164244395094
O           0.16667351499009   -0.42088155791441    0.99098570012572
O          -0.37865469284928    1.72814754250021    0.04202453981445
O           0.76548479773489   -2.76115686198501   -2.55265387742238
H           1.42444483184347   -2.56525900896805   -3.22074065537732
O          -0.22154558444877    1.98438795156011    3.67731782238092
H           0.23363954606874    1.62238689780763    4.44002038735662
H           0.44055594063718    1.94340231685199    2.93311849737201
O          -1.35221909842839   -1.13734025112853   -2.50779837941323
H          -0.60702975380863   -1.78253839901723   -2.47472991365506
H          -1.87421373335811   -1.37623237321625   -3.27529617948128
O           1.95439354267442   -2.03159873431757   -0.29356183196387
H           1.24663344279333   -1.95426750640545    0.35888441536584
H           1.21275159889179   -2.60255409310278   -1.68472951810284
H           2.14811904099103   -1.09972209591533   -0.49987056922031
O          -0.07312492400441    1.21516256669802   -2.42717248663962
H           0.81263194732843    0.95361069683007   -2.12801758052358
H          -0.58986131743661    0.38157025970097   -2.51092275341527
H          -0.36504496371596    1.64742723395939   -0.96579924441863
N          -1.82324215155088    0.64332413229775    2.09614024100059
H          -1.34022930248090    1.17759298234731    2.87737529344479
H          -2.60729745233199    0.08295217079670    2.41290758352748
H          -2.09357758117764    1.30730902120704    1.37103204676814
H          -1.00218764036593    0.04560885378319    1.63275827580785
