    26
        -50.45730810  Gyration_radius:  2.49216729391 Dipole_moment: 3.247
 S          -0.15574725242565    0.60050311961277   -0.88901087696070
O          -1.49631606430263    1.38836624319931   -1.11847137685752
O          -0.56210132849987   -0.70793392742635   -0.35309092873311
O           0.53898727193622    0.46368597252876   -2.14338772579369
O           0.55835280471614    1.37725245045849    0.11403044181973
O           1.04511668378360   -1.07831095291847    3.08422280361463
H           1.25830328966838   -0.47171349851629    3.79623391550139
O          -1.32264995389825    1.88676856417586    1.82741657394010
H          -0.53702664065190    1.86584041914326    1.22739156068002
H          -2.04626823945255    2.19136667163964    1.27421736631318
O           2.56248667434151   -1.16130545937087   -1.41418821887139
H           3.31990425430658   -0.83645774259896   -1.90596139851411
H           1.79771597758811   -0.64215416929285   -1.72683453600707
O           2.48660262072117   -0.19923842905617    1.12888826855492
H           1.66443420425584   -0.84289123548612    2.32750307072548
H           2.62412570420346   -0.75829629363172    0.34060002107007
H           1.89778127975450    0.50986507869604    0.81354317243815
O          -1.19902302281683   -0.65522743390718    2.02193238827933
H          -0.30550537552766   -0.88453393864079    2.51832458070509
H          -1.33961607105017    0.35330987206567    2.10266853908619
H          -0.95496986191534   -0.76989853763118    0.98299430794016
N          -2.06126212763937   -0.40281889360916   -2.91103448317115
H          -2.59339947497142   -0.50918021353830   -3.76570000470531
H          -1.07462590695383   -0.32576761823025   -3.14169667569830
H          -1.93562663263873    0.85013659233113   -1.83672168556046
H          -2.16967281252513   -1.24136663998436   -2.35386908981194
