    26
        -50.45940107  Gyration_radius:  2.54175814698 Dipole_moment: 6.833
 S          -0.40767013706586    0.18656380971885   -0.96808663497751
O          -0.30098067342482    0.33449104166808   -2.42539191154011
O           0.41616262092535   -1.10201592773288   -0.67176083787847
O           0.28633562546005    1.28371154404839   -0.28737814664260
O          -1.76198721224772    0.01717155265862   -0.50143468108195
O          -0.58269275061165    0.22152816598063    3.18566024843630
H           0.18299545167706    0.66442669943492    3.55353383946504
O           2.74805751345595    1.61331305542852   -1.01237231246462
H           2.81374623663011    2.53462278893368   -1.27021351852548
H           1.83647196828766    1.51035211629585   -0.62588312777265
O          -2.71531178045665   -2.07568032216933    0.85388821780267
H          -3.32660710398852   -1.68982978308409    1.48447630980771
H          -2.46146757957855   -1.35271485078684    0.24468699327385
O          -1.61154821893537    1.95426646472690    1.44270446103534
H          -2.28405031111040    1.46879110580856    0.95267015091759
H          -1.03469902561587    0.88943071570291    2.61584294319873
H          -0.83420757796410    1.90119661829900    0.85375950452645
O          -0.15365867604160   -1.91312171759169    1.63050425201881
H          -1.07223063407420   -2.20963815900119    1.45330859537209
H           0.21584651661811   -1.43520309557429    0.29165618325895
H          -0.24950247741247   -1.15322295398545    2.25051392603460
N           2.10004310387067   -0.34696619955543   -2.64289712593293
H           2.10440177062673   -1.19817843658447   -2.08223319435797
H           1.01637868389038   -0.04189797474331   -2.67617645396311
H           2.56289666367353    0.42821545416360   -2.09113450959516
H           2.51327799340554   -0.48961172204570   -3.55824318040163
