    26
        -50.45852388  Gyration_radius:  2.50952720509 Dipole_moment: 1.947
 S           0.93553131339393   -0.12819596363699   -1.05747048277091
O           2.09183616199161   -0.51429949242611   -2.00910983856451
O           0.57399116881517   -1.33501448251389   -0.29579186039289
O           1.43250136012812    0.91282737910881   -0.17098372979122
O          -0.19874758473070    0.33202351044481   -1.84716723144883
O          -0.51990743661635   -0.60090950099597    3.27202005945530
H          -0.06380291871369   -1.35533750834362    3.64882140722129
O          -0.21789638190141    2.81750066144721    0.62983349503406
H          -0.17363300034633    3.59315420125600    0.06874794586052
H           0.43685425856975    2.17941723107378    0.26542100485609
O          -2.07471785068824    1.02927854030602   -0.15742495131297
H          -1.60555588202323    1.76552284841665    0.28739926358049
H          -1.50555150981469    0.81998617469562   -0.93624152974546
O           1.30982682081146    1.09442603837127    2.49924912546695
H           0.18716176112519    0.06401212308117    3.04031535108751
H           1.52938214995866    0.89057027543293    1.56864253380264
H           0.90196478505712    1.96610123350493    2.46688988431886
O          -1.52573244802112   -1.11781343655666    0.99788016373418
H          -1.20028873234727   -0.92272393055061    1.95568485661328
H          -1.88657013890602   -0.21297832610551    0.58573110500949
H          -0.64513230235084   -1.29392008086939    0.43960377123688
N           0.39165977738820   -2.11238332557428   -3.15411609608307
H           1.65111114396504   -1.19977159009569   -2.58485347900323
H           0.20563089832327   -2.80349514745999   -2.43867799965332
H          -0.25419549733100   -1.34111913614518   -3.01242690364421
H           0.22428007437991   -2.52685830593958   -4.06197585485148
