    26
        -50.45896433  Gyration_radius:  2.46095965486 Dipole_moment: 4.079
 S           0.06795337710756    0.56956791888152   -0.74433265049475
O          -0.67484568706488   -0.67491858456666   -0.44225687157109
O           1.30105181751453    0.62316366299693    0.01416521563046
O           0.46374774239958    0.46239800099318   -2.25030934984192
O          -0.77773207227161    1.72977697354059   -0.55723186908861
O          -0.44612570972693    0.40344308708173    3.29277381764227
H          -1.34510403316103    0.56873885100379    3.58176145069541
O           1.30432803620330   -2.22079800643170   -1.43945389964679
H           0.47198851127675   -1.79167621538551   -1.17278234156099
H           1.67691213415121   -1.64557805964305   -2.11183568243184
O           2.23226817098473   -1.62456133421494    1.00641489700034
H           2.13383239374071   -0.69129636412191    0.70978398271912
H           2.13121201435401   -2.13115614739539    0.17291183639116
O           0.21922839688947    2.44204747487115    1.79631768828737
H           1.13430822660272    2.26755989559431    1.55402446678772
H          -0.26970691191988    2.32180610506175    0.95612073014307
H          -0.16604119897526    1.20948418656455    2.77403435324505
O          -0.12163506754868   -1.63506790191861    1.80647301728351
H           0.93087025848461   -1.73238874188551    1.60349036474781
H          -0.23714377969616   -0.85560822114452    2.46712715788330
H          -0.46587731491196   -1.28325436592554    0.89664854230700
N          -2.03816808584710    0.73328371549606   -2.87489689410624
H          -0.42064583133309    0.54137434748197   -2.71706409131521
H          -2.54308016786895   -0.12022393853149   -2.67422329867707
H          -2.04207682593874    1.30514241142883   -2.03337394023193
H          -2.51951837345413    1.22874124018743   -3.61428662178357
