    26
        -50.45896432  Gyration_radius:  2.46092101867 Dipole_moment: 4.067
 S           0.08855909111695    0.52429991081530   -0.77425673671337
O           0.55745838314360    0.33469522970644   -2.25094265349044
O           1.28268444781232    0.65634968684793    0.03511950192649
O          -0.79131899448122    1.67167050775195   -0.69937616897902
O          -0.63885215470249   -0.71798555573662   -0.42907063968479
O          -0.60228112115197    0.59604799514812    3.23849298651349
H          -1.51591528837707    0.75552577241299    3.48105408256036
O           1.41820744741500   -2.27126363208454   -1.23916943148703
H           1.80787584984937   -1.72899636728357   -1.92902934415085
H           0.56494072528084   -1.84811653752587   -1.03678486936701
O           2.21957083131748   -1.50326995365106    1.20344520500785
H           2.16727396151510   -2.06147218995165    0.39887379976319
H           2.11461566718325   -0.59230869984475    0.84622820798801
O           0.07712744512598    2.55620219612389    1.64658024706925
H          -0.32006070164718    1.37565464941825    2.68186194403778
H           1.00693680471924    2.39409185611638    1.45782366699043
H          -0.36839434511164    2.36957707723356    0.79440533920783
O          -0.16757981108186   -1.52166914729800    1.89834476323404
H          -0.47762761497058   -1.23581330311951    0.95377121941885
H           0.89479135158247   -1.60575455218878    1.74832909273657
H          -0.32957699791333   -0.70565641927667    2.50280047731257
N          -1.91868040353158    0.49821406920180   -3.00303814567734
H          -2.37861354799253    0.93169496021746   -3.79323747857594
H          -0.30549631084922    0.36086106062213   -2.76143875533170
H          -1.97529667156464    1.12208795203862   -2.20132068746359
H          -2.41034808287192   -0.35466657571099   -2.76946564293066
