    26
        -50.45688567  Gyration_radius:  2.5395098629 Dipole_moment: 5.609
 S           0.14964717008435   -0.97096793628448   -0.30681263508385
O           0.75515859878374   -0.55839087663464   -1.58136699204686
O           0.34000655869852    0.07755760713577    0.69666743010117
O          -1.35188390008931   -1.19897959419136   -0.49631014230890
O           0.72602583445015   -2.23647485675866    0.14320095260175
O          -3.07650808710434    1.69473860257276    1.43062209937176
H          -3.99306734521208    1.56164840935868    1.67705280092927
O           2.88412426032286    0.46742823183877    1.16575533426966
H           2.98216419353090    0.40397805677323    2.11759173622355
H           1.90749423733920    0.47029791221065    1.00037238478166
O          -0.16069317061444    1.86649481213616   -2.12753156497931
H          -0.21119719113206    1.89451363462279   -3.08499979705837
H           0.25641107066589    1.00694338768383   -1.90273375082927
O          -1.70774490728938   -0.45479331382872    2.29004810988307
H          -2.04324529484637   -1.20323795840982    1.78909460233190
H          -0.87910527252967   -0.20410124290373    1.83305884413227
H          -2.56323468808738    0.98016173894587    1.87132302842422
O          -2.44177264077081    0.97268822415030   -1.05864134705844
H          -1.84361999286866   -0.30014676209501   -0.76493191334449
H          -2.67651853473459    1.35829233444887   -0.18068945374595
H          -1.68010988842160    1.49052896056701   -1.40272190314648
N           2.99185193767657   -1.44308447835515   -0.63443825240655
H           3.22818146340941   -0.71361490631329    0.09135261664434
H           2.20190856171702   -2.04293066505643   -0.20504310953087
H           2.41565564207882   -0.96460885125757   -1.36473862640998
H           3.79007136490897   -1.95394049042014   -0.99518046171317
