    26
        -50.46460210  Gyration_radius:  2.41137973139 Dipole_moment: 2.663
 S           1.39377533361436   -0.07607774459000   -0.00986502782678
O           0.43796093123783   -0.82924542572175   -0.83177523366134
O           2.80518924698557   -0.64066356633226   -0.28994764853389
O           1.38021826418058    1.33754300319249   -0.40897076948372
O           1.11958651195040   -0.24175790788099    1.40361885480262
O          -2.54658869178402   -0.85383495516825    1.44449919873944
H          -3.30544839660192   -1.33056928373708    1.78251193380346
O          -0.83456014416720    2.32645499162367    0.16633745450780
H           0.13948040397028    2.05628089383817   -0.09184748271098
H          -1.40466695643248    1.62768924085028   -0.37257606045521
O          -1.92370241034438    0.34877393679055   -0.92709744104230
H          -2.36625958309281   -0.09065654262812   -0.17633266425848
H          -1.07869204283327   -0.14411214818876   -1.04710127259296
O          -0.91390025915657    1.13879973943146    2.36837540417879
H          -0.07449891228536    0.65160189169925    2.20468537932432
H          -0.91811081209815    1.98859660522169    1.16384384546634
H          -1.62095815069429    0.48116319874656    2.22604386589942
O          -0.47632948105325   -2.41776947818083    1.09143993837000
H           0.17061782947422   -2.04996169689472    1.70693223915883
H          -1.81144000694327   -1.52264432402606    1.34438139540123
H          -0.18532930212168   -2.05166806303022    0.23288218501606
N           2.43848916240271    0.07404210138201   -2.75503671136137
H           2.90575596655277   -0.47378614450137   -1.27028301913630
H           2.92958332798550    0.20320305945748   -3.63041540548389
H           1.61089815204326   -0.48645844755472   -2.91775007836264
H           2.12893002920001    0.97505706617682   -2.40655287973323
