    26
        -50.45730774  Gyration_radius:  2.54977000335 Dipole_moment: 5.132
 S          -0.20125881864773   -1.00694620525266   -0.36419868300337
O          -1.09266246938095   -0.45515761934784   -1.39899539380218
O          -0.64590128951317   -2.30196416440196    0.09095981170267
O           1.21092438660312   -1.16374168469177   -0.94370205280997
O          -0.12356355483813   -0.04015582432385    0.75136233044325
O           3.31141557073794    1.55267019653484    0.90770791094428
H           4.26236723080790    1.43456613059895    0.88798991574776
O          -3.00484250765033   -2.11946882728120    1.20648546515997
H          -3.54889007485915   -2.78312756093473    0.77835238340468
H          -2.08282818873536   -2.28424113376376    0.88110413848646
O          -0.45199232990594    2.04717873345050   -1.86993185976431
H          -0.48494235329402    2.19607948962360   -2.81687554856679
H          -0.70593375032883    1.10557207651102   -1.73444902915289
O           2.06456408908159    1.15079401391132   -1.41620872371854
H           1.59221186375224   -0.22273733663970   -1.18334996338572
H           1.24138178420477    1.67651271322928   -1.47581002350764
H           2.51485833702308    1.41581239713897   -0.57909926715646
O           2.23407600134562   -0.76180732116978    1.74924269487849
H           2.42638608680604   -1.44357566070824    1.09985113904230
H           2.94220447552791    0.75381584846625    1.34828245104476
H           1.31869256068988   -0.48202090783116    1.55263870783318
N          -2.60924981090331    0.38527412857219    0.52152380782397
H          -1.60455285184361    0.42735911835345    0.89529117332458
H          -3.16044260671144    1.21923380675029    0.69310479286990
H          -2.38278181843629    0.20857800550220   -0.48498939060323
H          -3.01923996154869   -0.50850239229518    0.90371321276735
