    26
        -50.45730779  Gyration_radius:  2.54961145497 Dipole_moment: 5.134
 S          -0.09265366250295   -0.95912940921949    0.50871851464356
O           1.04175577227038   -1.48335189492687   -0.27106717568018
O           0.42493100315852   -0.39296458804543    1.83764637371728
O          -0.70478267527703    0.15511385383073   -0.24554306198739
O          -1.05959643397072   -1.98811080266013    0.80573634559688
O          -0.05412079664418    3.46249431857039    1.48405190221172
H          -0.04841051208428    3.96520752488805    2.30010764408037
O           2.52994833042277    0.51062477253067   -1.10897732358056
H           2.00749697587558   -0.26230686439786   -0.79414673525410
H           3.45165499595980    0.26661252008808   -1.00475649876483
O          -2.09174040739654   -2.93799864629601   -1.40188830133702
H          -1.99939027416517   -3.89087933967276   -1.34562043603677
H          -1.82726420814072   -2.59415617822377   -0.51022829824605
O          -1.81844014896017    1.45771761795726    1.78849157479378
H          -0.79951663329678    2.82396035482513    1.55717555294657
H          -1.55998137580438    1.01777809260208    0.95516039799386
H          -1.50192857701973    0.87279967996864    2.48214076582590
O           1.84516518691720    1.60086300091999    1.27529883160725
H           1.21080016055707    2.35664553937444    1.28204510785473
H           1.04709738992371    0.42253327195894    1.64682766913076
H           2.08477236262247    1.43816089500623    0.34060227287585
N          -0.41758262014514   -1.16901786917576   -2.38475071195187
H           0.43411856989971   -1.50132372167614   -1.87530273425054
H          -0.25110195046135   -0.86536836649525   -3.33806444699705
H          -1.15082074359384   -1.91974970202344   -2.27576177152065
H          -0.70040973813846   -0.38615406971311   -1.70789546767024
