    26
        -50.46234972  Gyration_radius:  2.4331694284 Dipole_moment: 6.648
 S           0.57768625811793    0.91859927721334    0.91853197891911
O          -0.09210603367106    0.70705784826912   -0.49263649149087
O           1.16738952278657    2.25050207945150    0.77867765976381
O          -0.46667102032177    0.82300547602379    1.91698869855845
O           1.59238870819410   -0.11268906743346    1.06109994061406
O          -3.15184999160134   -1.48021218980102   -0.32056986298065
H          -3.41751568846269   -1.99988622488919    0.44055920347002
O           2.25097242309885   -0.77918795823848   -1.33940142826686
H           2.13145083587140   -0.68041266284599   -0.36029542903314
H           1.47306422676260   -1.27099659548835   -1.62555246660197
O          -0.29460175741806   -1.86541743578532    2.01221702019071
H           0.65212323099128   -1.92399807395171    2.16957819003615
H          -0.49736272387249   -0.91983395589162    2.14228873052182
O          -2.77785344469929    1.02877865300458    0.58375207498890
H          -3.12027781466140   -0.54786108736290   -0.00770294430793
H          -2.01486064316131    0.98321890088516    1.19416223626470
H          -2.47303971061551    1.54940440266421   -0.16227341950762
O          -0.53957164262923   -1.77287101757524   -0.64365151068437
H          -0.38416012932437   -1.99285268801509    0.30587540989752
H          -1.52428776176886   -1.78324020870240   -0.72130397579456
H          -0.30527481566081   -0.29076125553896   -0.60057645768407
N           2.26143053959963    1.84610746052883   -1.47697949175264
H           3.20342666813215    2.21781369042043   -1.55579809673946
H           1.65671279815824    2.23297596675654   -2.19562775893218
H           2.26642231158875    0.77217826299959   -1.53904844223890
H           1.82636566455023    2.09057842331120   -0.48231336720433
