    26
        -50.45760694  Gyration_radius:  2.49486580451 Dipole_moment: 2.746
 S          -1.39735335150474    0.24148540372254    0.11281956737474
O          -0.55842867896588    0.61420112472058    1.26526487377988
O          -1.28834527601246   -1.18670934490888   -0.15922476483860
O          -2.86948893432107    0.51035915851694    0.51332580290596
O          -1.06226302844132    1.04939632646352   -1.04387948211400
O           2.99914342411440    0.20455201742148    0.26288861036090
H           3.28540501573660    1.09558232228919    0.46915482580949
O           0.51133535324144   -2.88336589197527    0.77131516483587
H          -0.32808108332430   -2.42804310349914    0.54503827267828
H           0.94038562013042   -3.03456900363733   -0.07930865175472
O           0.31493241183657   -2.11277710206228   -2.05970247608188
H          -0.13937701014205   -2.31444010621642   -2.87873110428805
H          -0.36782930389323   -1.76040828779223   -1.44756954590929
O           1.36851734933796   -0.78688977846666    1.91368630342068
H           0.51709546837170   -0.18171758973160    1.70960390649509
H           1.11561832823044   -1.71421473083066    1.53931093551478
H           2.10711495180669   -0.40231746664570    1.29318085926464
O           1.40839324033310    0.37725249695963   -1.76374668684288
H           1.22151320229090   -0.53768880918997   -2.03974713865617
H           0.52990840864787    0.74854391810715   -1.53723458011054
H           2.43033564785709    0.27709999322445   -0.56391775758099
N          -2.16804351755927    3.00975369388986    0.66655834816569
H          -2.85498166606680    1.49503909370299    0.65877487852152
H          -1.52409945278244    2.99782771866413    1.44729156510153
H          -1.63677950918026    2.78156116277440   -0.16908563911125
H          -2.55462764974933    3.94048676451272    0.57393393306885
