    26
        -50.45706881  Gyration_radius:  2.55779655333 Dipole_moment: 4.842
 S           0.52528075649080   -0.37356670096007   -0.76243508136475
O           0.05447578018520    0.75789346022907   -1.67940348693343
O           1.80736177979298   -0.01349263851243   -0.15596974683335
O          -0.48650122618648   -0.57277760720333    0.28864340906825
O           0.63902000867273   -1.57870104004761   -1.57846283291651
O          -2.98753675489518    2.39269138392723    0.11926145920405
H          -3.57521578762629    2.91781343058704   -0.42607412469627
O           1.35529249736174    1.96830302938652    1.54549224499280
H           1.53451978168286    1.17918438919350    0.99074061042559
H           2.17365129490537    2.46814190276796    1.56711029005449
O           2.73451996698042   -2.11295255664439    1.12255454961127
H           2.45294477929232   -1.25913747313493    0.70885352329197
H           3.53077158292560   -2.37365307643642    0.65587476293577
O          -0.37948262013950    2.79560145275968   -0.30822018990102
H          -0.11035256738172    1.64906023827889   -1.13053930719039
H          -1.32738215013715    2.71865561786689   -0.04566144123809
H           0.15434866351617    2.61165795412062    0.49710093556262
O          -2.66269970786746    0.01335677967701   -1.09756585614066
H          -2.99925652205536    1.48268356791483   -0.25375517080755
H          -2.21227253947930    0.22354986883402   -1.92058122219103
H          -1.94657369330340   -0.26769098060695   -0.49136255865614
N           0.33014079447627   -2.99014254366541    0.49807136282593
H          -0.12930253050432   -3.87720844155586    0.67227156738095
H           0.45384155127253   -2.71617042511273   -0.53377985100907
H          -0.21943813410342   -2.14343522680928    0.79684887054619
H           1.28984495607239   -2.89966437483768    0.92098726395654
