    26
        -50.46125095  Gyration_radius:  2.43545129226 Dipole_moment: 6.921
 S           1.21555804293630   -1.27573922621847   -0.93337375969882
O           1.03398178702288   -0.26487589950658   -2.11678218133885
O           2.13755605436366   -2.28464390984707   -1.31951858408548
O           1.67491131052088   -0.45553393404202    0.21937628674358
O          -0.13383515716642   -1.77521847505081   -0.61820075054216
O          -2.02304059114839    1.31791743851227    0.09835021062604
H          -2.93104128378680    1.58166732072280    0.25129961306307
O           2.29895784890312    2.04765474590978    0.79900167776660
H           2.23812504074020    1.08338799282916    0.63395684711198
H           3.18048260570503    2.30908183501835    0.52908816006305
O          -1.01701498048932   -2.59942970820589    1.70202287402403
H          -0.46962775623616   -3.32766453843312    1.99951251098928
H          -0.77531028064960   -2.45193975511347    0.75661734074636
O           0.38878681721484    2.06465565987509   -1.12197825208572
H          -0.47083386178427    2.03217854414402   -0.67935503811832
H           1.05277351017716    2.24691069619330   -0.42749360155917
H           0.80532954433901    0.62708378753067   -1.74228133542954
O          -1.88359068783511   -0.34352782362875   -1.88278298364640
H          -1.38746212390083   -0.00712609650126   -2.63368726454819
H          -1.28095840448475   -0.99970293228009   -1.45167383302836
H          -2.04491239457642    0.68200560858894   -0.67942844606327
N          -0.33374847917914   -0.02496648182550    1.75074244309840
H          -0.69953681083836   -0.98359462569556    1.96267801539071
H          -1.04433037134870    0.50886398754667    1.20575241529358
H          -0.06092162040614    0.48104791634882    2.58671310843829
H           0.52970225190663   -0.18849212687060    1.11144450678897
