    26
        -50.46125100  Gyration_radius:  2.43535515946 Dipole_moment: 6.930
 S           1.87036288508360    0.34317682721923   -0.60913949848827
O           0.75749346633616    0.13667264275683   -1.57409344170469
O           1.60491457066845    1.74571579343764    0.03742260024802
O           1.70969984578472   -0.63888338387306    0.47690780432867
O           3.15626296644879    0.34347273803012   -1.21208121772770
O          -1.71386655529460    0.02528652688554    1.70284241781984
H          -2.27272518162925   -0.24293372587168    2.43295974544668
O          -1.37806490462659    1.38712833400262   -2.50614228457231
H          -0.53138834033967    0.92417587651588   -2.33477103784992
H          -1.19403161883540    2.03624359200656   -3.18662474757401
O           0.91608277712200   -3.12303830566799    0.27238431777843
H           1.51545945955708   -3.59352593760372   -0.30885609639812
H           1.35495532958013   -2.26117481968858    0.46897287564520
O          -0.97457391033072    2.17169791891589    0.05602162430475
H          -1.43077027041011    1.54084806104921    0.63022797036639
H           0.62654785218899    1.92022769307541    0.03035292208754
H          -1.27949956939234    1.98956535416131   -0.85509640386962
O           0.68125650489747    0.54245458045463    2.53988803967267
H          -0.80958643945620    0.21296147651328    2.09885855291175
H           1.16890171098496    0.04230191769208    1.83855821686948
H           0.94277415362753    1.45889163639247    2.41784796990026
N          -0.97475877371284   -1.40645498287052   -0.48566882235522
H          -0.25676452888211   -0.74471266224706   -0.96235440356705
H          -1.72874838333018   -1.62687575074377   -1.12776454662679
H          -0.42226302929809   -2.25238393958893   -0.20895073999482
H          -1.33767002674253   -0.93083745095344    0.36829817334915
