    26
        -50.46577053  Gyration_radius:  2.40761233311 Dipole_moment: 3.802
 S          -1.52011403471517    0.61645436969419    0.41258754912799
O          -1.28979120390948    0.55676422040015   -1.04642433180915
O          -0.42627328996321   -0.35564599276286    1.03091782316875
O          -1.26040463695606    1.93424616123692    0.93767203143701
O          -2.77957229452307    0.02988720175760    0.79139284191654
O           2.51390163499450    0.41974214034246    1.65060452432264
H           1.88796769155888    0.12878976067772    2.31734241722374
O           1.13216323988747    1.43205931608910   -1.79261838053946
H           0.17166898426765    1.28555491447187   -1.70546452168411
H           1.35391567653042    2.04902374766408   -1.07677037344100
O          -2.28015632035470   -2.49758945742609    0.61140054423909
H          -1.82599676265754   -2.66982388103778    1.43917978993749
H          -2.60886965017864   -1.56065368981815    0.69433233506883
O           1.20917457398262    2.62992724217094    0.68954474804072
H           0.25129680484024    2.38406157627102    0.80778336325006
H           2.18268281855089    1.28353861103939    1.33925975152488
H           1.28720145988995    3.53390126441614    0.99778574544996
O           1.61621081078639   -0.81826846640548   -0.54522262469474
H           2.24042119038275   -0.56897691603880    0.16520765129441
H           0.36153581566334   -0.45607326900829    0.43132753709334
H           1.57995192357537   -0.02165582773535   -1.14042579972710
N          -0.74878279138357   -1.90136734661900   -1.42823353528997
H          -0.93865850242170   -2.34600835162619   -2.31998754980959
H          -1.04277323468587   -0.85578788010217   -1.42185792811175
H          -1.32268462440231   -2.32511653310864   -0.63425830969507
H           0.25598472125805   -1.90698291453802   -1.20507531827301
