    26
        -50.45572184  Gyration_radius:  2.47905451089 Dipole_moment: 3.363
 S          -0.76700804202358   -0.17028535444255   -0.89807357102397
O          -1.17881180725749   -1.53047354875578   -1.20330468841021
O          -0.95829700067349    0.72212139664313   -2.14338356910704
O          -1.51238987076027    0.40689084736101    0.20110419329392
O           0.68687120317004   -0.15048536643462   -0.58617778818760
O           0.64718819687243    0.70075609431880    3.19156421232531
H           0.00109577035731    0.59066264222932    3.89139036520981
O           1.72190474367459    2.29115222111660   -0.21247165253475
H           2.59460266284899    2.13565243777625    0.15342068754018
H           1.37190056382149    1.41616881899243   -0.47211190735079
O          -1.58012616402429   -2.05623808223626    1.33313714997299
H          -1.52255163794503   -2.14694286507629    0.35469127825215
H          -2.05651325123679   -1.22159045955177    1.43750229446884
O          -0.33931866977519    2.39121682305153    1.54698624890590
H           0.38529772885498    2.62446442144378    0.93457024737789
H          -0.91045705745935    1.78432715951892    1.03451872470984
H           0.28859479134672    1.43816930850623    2.58679191641787
O           0.81091385681843   -1.26141831902027    1.63831246330316
H          -0.13112661576647   -1.69194431389546    1.63096870781876
H           0.87281063122952   -0.81441570872149    0.69123616712338
H           0.78737110473256   -0.46187297584648    2.33113090457966
N           0.23013483539273   -1.05688654174905   -3.60948666352387
H           1.23322169514469   -1.06597462325271   -3.48014273000640
H          -0.50987255273111    0.20324927380097   -2.87849417934110
H           0.01989926517675   -1.38570311837784   -4.54282590175092
H          -0.18533438976951   -1.69060016739125   -2.93085291006637
