    26
        -50.45599947  Gyration_radius:  2.47905820667 Dipole_moment: 2.528
 S          -0.79705127437484    0.29168419148699   -1.21138283746523
O          -0.79905598477669   -0.45616715392656   -2.53096810195163
O           0.25730813017536    1.28035024788869   -1.19151011387896
O          -2.10112354902815    0.82625757009219   -0.94569577521317
O          -0.46816661575323   -0.81318652276470   -0.19174507835443
O          -3.30240290988901    0.19226387143807    1.37471130742666
H          -2.99105275551240    0.47561168061198    0.49313571602643
H          -3.93635060897233   -0.50998051744700    1.22293186079473
O           2.57358558087090   -0.07779569341566   -0.90183199934057
H           1.88298319142586    0.60316695002153   -0.96084007633471
H           2.47719947576419   -0.47348355755405   -0.00222230509986
O          -0.63016033912396    2.60495331114200    0.95510150819844
H          -0.18709718772876    2.31808545564235    0.13657027358965
H          -1.53700557575724    2.79999960286104    0.70501543319535
O           1.45446867004875   -1.54651954402686   -2.68341978612169
H           1.86226837398897   -1.31029527894147   -3.51995991820522
H           1.97514324356164   -1.05226986756970   -1.96692202117580
H           0.11153906279815   -0.95298966849537   -2.61742374786685
O          -0.72326539829125    0.21690004453624    2.09012488619872
H          -1.69584559551028    0.12585346487799    2.14881357274911
H          -0.52310600499000   -0.44052548138828    0.77524663740842
H          -0.58533941571908    1.16891285426765    1.86356772590543
N           2.03007073455665   -1.18815828552952    1.52579456453758
H           1.47481825433461   -1.98213062906458    1.23089224649532
H           1.41982264840838   -0.57803021374482    2.05720608951011
H           2.75781586949464   -1.52250681099938    2.14480993897092
