    26
        -50.45499268  Gyration_radius:  2.48807923677 Dipole_moment: 2.362
 S          -0.81013520318026   -0.29405767944204   -0.51929858590308
O          -1.08960172839935    0.31669749389347   -1.92556205210633
O          -1.60150201008730   -1.49366962542366   -0.33958076755389
O           0.61995897330102   -0.58464027145254   -0.44402159145886
O          -1.16961922153438    0.75778296961922    0.44373828403358
O           1.57415418095442    1.49641187993820    2.75026846862189
H           1.60054983695473    2.15435116340740    3.44784178148702
O           1.58735147469079    1.58060621285060   -1.65648946262650
H           0.86571945873677    1.72247320104760   -2.27421983415042
H           1.39862405385737    0.71802377481639   -1.23681771975793
O           0.12037338825287   -2.15379555989262    1.61022981341930
H          -0.70381282110511   -2.29069377007846    1.10948572284645
H           0.70120559352639   -1.74950836737808    0.93606660886901
O           0.71806242369145    2.68655574370080    0.63697893352211
H           1.35742838636946    1.99738200777193    1.89735133443613
H           1.23738432399767    2.48417171276495   -0.16871300761673
H          -0.09754643311188    2.16380364473982    0.52824218453323
O          -0.45802914449469    0.03361739166101    2.73138727187631
H          -0.87794315678271    0.38981627238802    1.85112652014141
H          -0.18260066301858   -0.92968268778353    2.45667932363483
H           0.42923764270133    0.60662613531674    2.82932286705195
N          -1.02913560168175   -2.02081324750207   -3.04513502869606
H          -0.10195812931849   -2.39552809806356   -3.19717519105149
H          -1.08665196274557   -0.48143427682870   -2.53984388199968
H          -1.64838918051690   -2.39255791502616   -3.75335468010933
H          -1.35312447098470   -2.32193809500833   -2.12850729143425
