    26
        -50.46485758  Gyration_radius:  2.56519847995 Dipole_moment: 4.109
 S          -0.28756358891395    0.38793586904162   -0.79065992410081
O          -0.03291477423282    0.14342589898124   -2.20487368022597
O          -1.71138418891871    0.98950822247520   -0.66865287050711
O          -0.25615262119681   -0.86300574190370   -0.02678259896943
O           0.65697492931592    1.35228381731150   -0.23617721330186
O          -1.43159500771392    1.55822315110818    3.14910081468787
H          -1.99153252640001    2.05818824671549    3.74477663602223
O           2.63924973954243   -0.28983819584678    0.20243134992774
H           1.99579901659219    0.45107419429784    0.09450841327124
H           2.25305516856927   -0.84991070511047    0.88100049331356
O           0.37885819433605   -3.17475158542739   -1.11219860261393
H           0.08946216261118   -2.37266440746658   -0.61501440141728
H          -0.40315095943140   -3.49826025853763   -1.56229701653552
O          -0.81154778513045    3.12784554445586    1.07630024259964
H          -1.56327026494442    3.14184104466458    0.47810768068467
H          -1.12440878679206    2.19330694348645    2.46013647115775
H          -0.14355794216172    2.57310321959358    0.62269281936645
O          -2.40144599210559   -0.24430799678310    1.43867487015157
H          -1.63747995890973   -0.80308304282371    1.22648086095317
H          -2.10566010940789    0.34763978130171    2.16924750582573
H          -2.12741532300031    0.55003784779115    0.14703395465868
N           2.03858526310604   -1.37081850679415   -2.12589890291608
H           1.58205699768365   -2.28301778886464   -1.89404404178321
H           1.22190426913889   -0.69878229712858   -2.32315694721472
H           2.47686509297426   -0.99266452967899   -1.23600588927275
H           2.69626899541368   -1.43330873484523   -2.89473003375235
