    26
        -50.46485768  Gyration_radius:  2.56507977437 Dipole_moment: 4.111
 S          -0.85476275083221    0.14179467719798   -0.32744969947529
O          -1.05122261742464   -0.69403445629774    0.85250825929374
O           0.57122484545072    0.25142286687534   -0.65012552334470
O          -1.61217932579600   -0.35797801653824   -1.46800554061834
O          -1.38358300461539    1.56217183166672   -0.00048134391150
O           0.84594950857993    1.95713269111452    3.13782991539338
H           0.82209130209546    2.61095949161503    3.83802545624020
O           1.57380531863076   -0.55394327975524   -2.94569546872896
H           1.39963152855694    0.13733988551833   -3.58643780512811
H           1.29970137596750   -0.18511137889791   -2.07213597661479
O           0.67992959301969   -2.56042669802885    0.27016475899836
H           1.49759332125455   -2.05768023473320    0.31443017490585
H          -0.00806818614907   -1.94954407316462    0.62802541989033
O           0.85611412282712    2.61808687343509    0.55375390578056
H          -0.56261039019387    2.11723346718763    0.22241902235452
H           0.96539416561841    2.45300845487812    1.51940427671039
H           1.20955271492381    1.83121366349923    0.11006539020573
O          -1.62119526856576    0.97503146128769    2.83247175426078
H          -2.13350304741422    1.60910342603220    2.32386940131387
H          -1.44651077450664    0.23988279381071    2.20896022124719
H          -0.04314562828516    1.53079731629843    3.12742720159493
N          -0.20675412085149   -2.37558580712850   -2.20591576393632
H          -0.92828435552692   -1.61003120028742   -1.98063436236882
H          -0.60329636446572   -3.15857884971844   -2.71310513908521
H           0.55051047706482   -1.88056406489678   -2.73117389610061
H           0.18361758062483   -2.65170082088475   -1.25819463896768
