    26
        -50.45496835  Gyration_radius:  2.5115773802 Dipole_moment: 4.595
 S           0.34745204792774   -0.30739794679944   -1.26333375023566
O          -0.85973078804549   -1.10276281868280   -1.24032581518925
O           0.98892499747058   -0.37902573214944   -2.67183694050996
O           0.04113831125749    1.11607534591130   -1.01395148677815
O           1.35803544068675   -0.77602916773806   -0.32182526628520
O          -1.41193674669986    0.88669421236651    2.48488582655039
H          -2.27938981549843    1.28258628221553    2.38731248786736
O           2.50793643843324    0.60076409567311    1.54936288486540
H           2.15540215051404    0.01234827148233    0.83256500633347
H           3.35091350616761    0.93200524576508    1.23508127813693
O           0.92454617406274   -2.37918577576202    1.82007386555023
H           1.42286179395034   -1.87376722706852    2.46645423682129
H           1.13891509733776   -1.98907694309678    0.95402074574792
O           0.42272670226921    2.05060561522489    1.22825695269633
H           0.24592746596922    1.70020048699634    0.22503240810020
H          -0.34238035420760    1.61510794696632    1.79765230548210
H           1.28339854183396    1.58062895948714    1.49439431102288
O          -1.55339630596271   -1.39452788854451    1.32391004141873
H          -1.47660685162960   -0.03381628829926    2.06505198366615
H          -1.41696031702485   -1.32331122501653    0.35777263078268
H          -0.79788508570510   -1.92844869847262    1.63919076373789
N          -1.31739608855792    0.39274397270953   -3.58190797178690
H          -1.88089773496029    0.26433097975657   -4.41265239001827
H          -1.41483898116774    1.34873575803415   -3.26489940610902
H          -1.66577626292900   -0.21278542981395   -2.84331609581248
H           0.22901666454243   -0.08269202113534   -3.24696860607500
