    26
        -50.45899786  Gyration_radius:  2.47147318785 Dipole_moment: 5.014
 S          -0.44541123256800   -0.13052043605924   -0.95495926930039
O          -0.76061812339616    0.50456896877404    0.34401633383663
O          -1.37947352478595   -1.39141925500405   -1.02555642499013
O          -0.73344790272234    0.74588215861405   -2.05679099860146
O           0.90400401706595   -0.67493436823499   -0.93679715955333
O           2.47333154368387    0.27617466945331    2.37583283911571
H           3.18949122242270   -0.35492176031905    2.47077723420665
O           0.55241905559609    2.71068191858404   -0.62362765358033
H           0.23601477492757    2.31471816191022   -1.44720511125085
H           0.00148501080797    2.29779876629852    0.05343094829953
O           0.61637358275754   -2.73363634119220    0.61395732884015
H           0.86056466501097   -2.07157210764893   -0.07863876584240
H          -0.19923616157261   -3.12963493062537    0.29587973371649
O           2.68290143281200    1.13731997106733   -0.04446308750874
H           2.13013154292667    1.92461221261997   -0.21720904953148
H           2.59433767233477    0.69908201687834    1.46671274040260
H           2.21135997269675    0.41508639115053   -0.49743183553844
O           0.20567603272162   -0.79504225428267    2.21109374244553
H           0.37871280434184   -1.67504260300989    1.71309141513115
H           1.14532396265266   -0.34288993919731    2.35812759774404
H          -0.26667897619355   -0.19333825199622    1.47388435729985
N          -3.42745645719402    0.13011545260819   -1.50767963461567
H          -3.77653597760868    0.61231165695364   -0.68966664951651
H          -2.71507731480879    0.71438807994150   -1.94006526580136
H          -2.28671055544837   -0.99752398030614   -1.19702018616358
H          -4.19148105646237    0.00773578302102   -2.15969315924417
