    26
        -50.45599945  Gyration_radius:  2.47907159442 Dipole_moment: 2.528
 S          -0.69010341251569   -0.38275398763977    1.25079822054784
O          -0.09147966619725    0.81564199824243    0.49316525141737
O          -0.10885345119816   -1.60269316165876    0.73757553486651
O          -0.23932650859690   -0.13917344771449    2.67840138456993
O          -2.12156378013044   -0.34211369089085    1.17212992898536
O          -3.26560592140738    1.35882676164891   -0.56776699933370
H          -3.55649315482504    2.14330688697824   -0.10081030038935
H          -2.97983884315561    0.72276538474596    0.11654374621028
O           2.49617185916424   -1.06940932775659    0.26538845742295
H           1.60978375190428   -1.46484689211084    0.31134424303826
H           2.44821524783554   -0.39877714041150   -0.45781267558853
O          -1.69794540171507   -1.80051289080617   -1.40375730556061
H          -1.08030728730417   -1.95331018134151   -0.66633703305815
H          -2.57120261678323   -1.75444953793892   -1.00601675150293
O           2.26021497114640    0.03650916795658    2.56866565339233
H           0.79538301787157   -0.02613832031033    2.67153186125934
H           2.64658621999880   -0.57477847157205    3.20027819093238
H           2.45683768678609   -0.34600985510395    1.65009079679762
O          -1.00581735951945    0.71384968016932   -1.84917744920051
H          -1.21776517810323   -0.24965207338383   -1.90748546326958
H          -1.86749412323508    1.13463155271063   -1.65405342503709
H          -0.40574146845575    0.81158917111512   -0.49593102473228
N           2.12359615201184    0.87227667753149   -1.60899916597601
H           1.26492207581006    0.70135406988430   -2.11940295560389
H           2.84081724315283    1.12790011098484   -2.27598970352119
H           1.95700990746574    1.66596753666649   -1.00237301665944
