    26
        -50.46893910  Gyration_radius:  2.40456499966 Dipole_moment: 6.283
 S           1.43247225943131   -0.97416828720630   -0.56013556070864
O           1.61844305262899   -2.29589877122848   -1.09815504134658
O           0.59116317155458   -0.14164810700119   -1.45580815549299
O           0.54730627207197   -1.20568137641857    0.72669862370039
O           2.61950576461545   -0.25359863756451   -0.16518404830486
O          -2.04510420916105    1.22357123761076    0.60866131504891
H          -2.76443468504928    1.83658976131282    0.76389030023025
O           2.06340561636674    2.13858626762906    0.65130143553119
H           2.88350801139389    2.52959423212216    0.95617339446111
H           2.31428683352229    1.24608209934448    0.28490161333368
O          -0.64409839336979   -3.38807395110662   -0.38600721166008
H          -0.48307858027279   -3.53849596747326    0.54853158522433
H           0.23489446247076   -3.09404829788080   -0.74043798539299
O          -0.21319241629853    2.30953195431796   -0.89051740579443
H           0.12024290637910    1.47640827008263   -1.28619434976151
H          -1.39664283554028    1.69633930787836    0.00718137623419
H           0.53855479601810    2.62020994174178   -0.36476684915621
O           0.23373597655384    0.88816871589241    2.19475776556289
H          -0.64223147333896    1.09764973037207    1.83290227632782
H           0.51870794179165   -0.41545836229902    1.34202852114315
H           0.87445125251184    1.49360710200598    1.77213068484433
N          -1.72452732490953   -1.05373545032842   -0.94756318944784
H          -2.40477766004528   -1.09730738108979   -1.69897135935798
H          -0.77539379136238   -0.65092583317011   -1.29217673689442
H          -2.03799125010134   -0.42060979489552   -0.19467077445186
H          -1.45920572786241   -2.02668837265141   -0.60857024387033
