    26
        -50.45496835  Gyration_radius:  2.51170166714 Dipole_moment: 4.595
 S          -0.52870481557416    0.22650077241762   -1.21650726079509
O          -1.07553277075674    0.11945594389009   -2.66224222408736
O           0.76753330782866   -0.48205741321134   -1.20523724274856
O          -0.35475410605603    1.61839279546600   -0.86646241332052
O          -1.48533610741637   -0.46304920382633   -0.35813888515334
O           1.72435109308113   -0.07388242507557    2.44513097349524
H           2.58090410549949    0.35393733688106    2.40048970442449
O          -2.30599967296625    0.34969160959331    2.09322732259671
H          -2.20706351035280   -0.48843329671071    2.55068286261881
H          -2.19525501131595    0.15124610104075    1.14631618695090
O          -1.07503304617785   -2.61699031405313    1.02417616930173
H          -1.38495859072849   -3.38003585602070    0.53347968345181
H          -1.33548965085918   -1.82016808248757    0.49358589369121
O           0.01506812782717    1.71721126489717    1.77886508796632
H           1.04252674409366    0.64303082219521    2.22460101727323
H          -0.07279177456628    1.79775969684589    0.80791421745843
H          -0.86159324096491    1.40670261757517    2.07928721313739
O           1.35743763543966   -1.87368728107715    0.73429295967746
H           1.55088277536144   -1.16484573682414    1.48196693899513
H           0.45865324472462   -2.29128849250115    0.95848705742465
H           1.14892956109251   -1.28831591552264   -0.14587332643915
N           0.94879560861171    1.58737686349940   -3.36255327904933
H           1.16703556771615    2.28471913106669   -4.06276696586643
H           1.75844733205617    0.99581974351471   -3.22649307048584
H           0.75371219052337    2.04933735697692   -2.47821031821766
H          -0.39176498606360    0.64157197160914   -3.16801833235054
