    26
        -50.46893904  Gyration_radius:  2.40448843289 Dipole_moment: 6.280
 S           1.15251636527947   -0.36822068218172   -1.36018625042900
O           0.16061609521799    0.73571993733109   -1.38675857558834
O           1.09152297885365   -1.15412943744170   -2.56416109151278
O           2.44998971026499    0.12574163723744   -0.96408844218242
O           0.63624184275492   -1.34922163615774   -0.23589084023146
O          -1.70833416699620    0.49065990062779    1.69962160448203
H          -2.31024872492189    0.84682829279347    2.35402181598590
O           2.30879037174897    1.61409808342554    1.14821269374415
H           3.20624986518561    1.85157146570680    1.38598218879120
H           2.38634015629206    1.09647174592050    0.29973825736993
O          -0.96483837716586   -2.66355146085482   -2.00498093889871
H          -0.56682790693564   -3.28581727590146   -1.39151811080376
H          -0.19669262267148   -2.14265547055026   -2.35612289362648
O          -0.28268673418364    2.38741816617309    0.62612838812803
H          -1.21711050829597    1.27448328013136    1.31215832260944
H           0.60404900648064    2.42709958307214    1.01382104318132
H          -0.13010535583505    1.94355833349999   -0.23496014346434
O           0.88527654488706   -0.44441881241194    2.16322534688273
H           1.42845563183021    0.35049846063193    1.99388542121550
H          -0.03890214966264   -0.15390382242160    2.22455632033310
H           0.83325611853738   -1.03296190609308    0.69434751742272
N          -1.98803921026968   -0.51763161394302   -0.87316722960910
H          -2.84849655904551   -0.20506145292712   -1.31031619379255
H          -1.71072133175339   -1.48686455121815   -1.21300022934311
H          -1.14199330957697    0.09500739391461   -1.17512979916233
H          -2.03830771999284   -0.43471815834778    0.15458183849993
