    26
        -50.46893907  Gyration_radius:  2.40457155238 Dipole_moment: 6.281
 S           0.86288733321392   -0.25754435296227   -1.58216832457776
O          -0.03265096055652    0.89235911032480   -1.30093169649956
O           0.48196776217703   -1.34134288011378   -0.49905986178067
O           0.53069960289713   -0.88390696888745   -2.83454338857152
O           2.24325701423852    0.11381090335256   -1.38005360243707
O          -1.33938314890782    0.36641189708679    2.02995886527251
H          -1.78952877787475    0.67138317253248    2.81846839992981
O           2.59012079993929    1.33463696129403    0.87557895771414
H           2.47731131155763    0.92314464573980   -0.02535527714468
H           3.53105512919534    1.48994753074765    0.96988200377799
O          -1.50071567269601   -2.34004872972852   -2.07773334509041
H          -1.04785379438884   -3.05374843829834   -1.62215983220807
H          -0.77020441412371   -1.82105145697019   -2.50403995508388
O           0.01125544321170    2.30332028250089    0.93117132817921
H          -0.02384510387916    1.96159156727721    0.01258488439674
H          -0.86742394333610    1.16477985551136    1.64836392464168
H           0.95289847047924    2.24883518461687    1.15112130085463
O           1.21915339880132   -0.75474953003931    1.89880313521254
H           0.34478794517539   -0.42600375101543    2.16270481307360
H           0.86369051289717   -1.15349096748852    0.40816992469742
H           1.78088434491050    0.02549884338324    1.72156615537712
N          -2.14409516253101   -0.29948809507043   -0.54354691333362
H          -3.04269661945184    0.10990019753810   -0.77631690579972
H          -2.00446150394565   -1.23257896921410   -1.03520300346652
H          -1.32181441170143    0.30029067236387   -0.92584524227610
H          -2.00529557534869   -0.34195670446968    0.47858363513724
