    26
        -50.45804777  Gyration_radius:  2.48940312244 Dipole_moment: 6.741
 S           0.19773866637517   -0.33889213346663   -1.86221878947339
O           0.34027499515314   -0.99068456294910   -3.11630411183521
O           1.14349695942331    0.74979764297703   -1.59754613703034
O          -1.24796712437851    0.29516531140952   -1.78809345211597
O           0.24286712166065   -1.28441539127838   -0.71395349742740
O          -0.40074239363571    0.70823617405077    2.24730988753461
H          -0.83717750615263    1.01902122734447    3.04094340093516
O           3.41088487202301    0.83949207403813   -0.31870433782158
H           4.11415766440996    0.50208459760559   -0.87544718386792
H           2.61760847924803    0.91448864194807   -0.90321303039086
O          -3.56298732829575   -0.75359320136952   -0.69582056073591
H          -2.87038924602641   -0.33230794730901   -1.23162506326216
H          -3.90780399828032   -1.47870058745395   -1.21965952522521
O          -0.53133064131974    2.12776070384436   -0.12275028788049
H           0.31027906050733    1.92372167540511   -0.56980108259814
H          -1.12927011838195    1.06014103308607   -1.16179537455166
H          -0.47707250470750    1.74820069315609    0.77178125846432
O          -1.64700038593534   -1.27997839832288    1.16679628769495
H          -1.00532434624829   -1.44332428058227    0.44531512596395
H          -0.96316652461030   -0.04646265761821    1.88785112737908
H          -2.48367283124455   -1.08278860337091    0.70525317560554
N           1.75948251864326   -0.57413414786549    1.21214645273851
H           1.14965986742128   -0.92375259702229    0.37250584607568
H           2.53704221658645   -0.01037844302752    0.79002820818360
H           1.13150546057807    0.01308388938707    1.79014076384072
H           2.10890706718701   -1.36178072261565    1.74686085980111
