    26
        -50.45804773  Gyration_radius:  2.48943022095 Dipole_moment: 6.742
 S           1.28676515743720   -1.39597218076924    0.13452585921257
O           0.26339818787815   -1.94228950655350   -0.76215222150844
O           2.06775415725916   -0.29857200776906   -0.69231305560601
O           0.60196049594320   -0.62718078175304    1.20898827940770
O           2.22719614471481   -2.33159569424212    0.64247078153954
O          -1.50291450249954    1.79569847344916   -0.47972819507572
H          -1.85038549834035    2.64533317723675   -0.75225020024993
O           3.00158137129971    2.17258702880218    0.12821728090257
H           3.74782745122870    2.09201278253253    0.72462183114735
H           2.85365423801271    1.28899464257770   -0.24817955825650
O          -2.18013373632936   -2.74908930650054   -0.35906453114285
H          -2.17581760532250   -3.63449792682754    0.00760028477909
H          -1.24588613456987   -2.56215882556346   -0.62127489066613
O           0.48283246833686    2.03597945409156    1.15516227370969
H          -0.72701515615322    1.98685494332077    0.13394504204252
H           0.61426436650743    1.08007902158034    1.32226915568770
H           1.33328885442044    2.33443166873778    0.78149297235829
O           0.03653736719974    0.25182894788238   -2.18125686545570
H          -0.57733958809926    0.82672485721662   -1.69154780594299
H           1.38904012806777    0.01751868546938   -1.34879144925803
H          -0.15595275082572   -0.66475246829946   -1.91172424629800
N          -1.93385232144762   -0.46049884304978    0.97143617433672
H          -2.05071412360663    0.37710762072324    0.37295582500426
H          -2.24759880872896   -1.33342534661405    0.48134512715612
H          -0.85482844635277   -0.56990763518726    1.12187956242817
H          -2.40366172603002   -0.33521080049137    1.86137255974882
