    26
        -50.45899782  Gyration_radius:  2.47055804483 Dipole_moment: 5.010
 S           0.76739486717269   -0.31098652947611   -0.67034647485709
O           0.84479993029882   -1.29101053275717   -1.71855033672547
O           1.87016064142814    0.78574510255023   -0.89102433540118
O          -0.51507712004954    0.42644240320902   -0.70674946651508
O           1.01972437822519   -0.82033256186841    0.66916746433401
O          -2.01018195088829    0.00000621414118    2.78841456153948
H          -1.67549258005551   -0.05146903817040    3.68586905072208
O           1.60920869438703    1.35424969007898    1.95389411454790
H           2.20351467860439    1.80639983410851    1.34926796877190
H           1.52819561845055    0.43907728630394    1.58861150906451
O          -1.70514340535535   -2.02982844206994   -1.00559198580239
H          -1.77850751272017   -1.06714056337090   -1.00538435743171
H          -0.83703501962927   -2.19235777930847   -1.40004460894764
O          -0.84230288781227    1.71862755731983    1.37425767506202
H          -1.38275721583802    1.05467831313278    1.98724372314345
H           0.12526073893107    1.71059737737917    1.71460421091855
H          -0.76985120807721    1.21838447196329    0.43951253472352
O          -1.12216148144476   -2.12989341705263    1.64014713808187
H          -1.54464491713279   -2.30057522198275    0.77546633829059
H          -0.23182887343682   -1.81003946310589    1.40749729379134
H          -1.75623605936671   -0.87198151455810    2.34675032243636
N           1.23391739775886    0.93486092829176   -3.40405410302046
H           1.77638951240642    1.01359162073251   -1.86395746155301
H           1.81883329919155    1.01372165776885   -4.22593230206355
H           0.99840205772908   -0.04453378111998   -3.25925574253638
H           0.37541840720541    1.44376639786621   -3.56981275056956
