    26
        -50.45599937  Gyration_radius:  2.47911375719 Dipole_moment: 2.527
 S          -0.60716130625226    1.12105361219868   -0.74816378793028
O          -0.90842815826085    0.82320530319250   -2.11839851143981
O          -1.54998552615387    2.18915227385138   -0.22763145096845
O          -0.94293256676975   -0.09301700507339    0.13604976278763
O           0.76772758931961    1.50463401902826   -0.51983776731856
O          -1.42906499807432   -1.72636690910937   -2.79490581256901
H          -1.28603159042873   -0.76702703373302   -2.67817040542815
H          -2.37678306134406   -1.85085269140801   -2.86132647196960
O           1.21723140983356    1.20319430399151    2.12614282686857
H           1.12373727444876    0.22770575462482    2.24783496261956
H           1.29772910619632    1.33822314423192    1.16727272299466
O           1.84973171987631   -0.32965551131252   -2.13698082707996
H           1.38215211259847   -0.16672617234668   -2.96021229947240
H           1.66274419231629    0.44070039079159   -1.57117291228233
O          -1.06608331288830    2.36921275881548    2.22676550629434
H          -1.40376505319084    2.27111615704878    0.79964210344038
H          -0.17762722024321    1.88544267741818    2.30097812564723
H          -0.88877567447471    3.28702054316844    2.44611140268096
O           0.33576864925047   -2.04421875390993   -0.80750479913369
H          -0.29589650398744   -2.25995065752668   -1.52305565282526
H           1.06491933017963   -1.56260859363567   -1.26915250655596
H          -0.41699001946416   -0.92900012162167   -0.18296071014589
N           0.76270256116013   -1.47974912827922    2.25544607653589
H          -0.24853531180363   -1.47867034773237    2.31153427868789
H           1.12132032611047   -2.05640311615236    3.00607613937832
H           1.01229605204605   -1.91641490651723    1.37562000719122
