    26
        -50.45490052  Gyration_radius:  2.49075510379 Dipole_moment: 5.144
 S           0.20043062301471   -0.08302697700143   -1.24719060129092
O          -0.89880513498464    0.17188431638953   -0.27927570525195
O          -0.26666803698160   -0.74250627005156   -2.42420326280810
O           0.72873817643038    1.35489371791063   -1.61639947737938
O           1.31548036204658   -0.71601113968515   -0.55706056648681
O           0.48647375109995   -0.80785718472242    3.19195001644078
H           1.35642794057081   -0.79783876243544    3.59564798594923
O           2.40043217097817    1.31623837649295    0.63056323944237
H           2.42347204454024    1.97584772771753   -0.06827462671132
H           2.18454658189942    0.46946141479605    0.16503479582251
O          -2.00180243406053   -2.14239096386480    0.55455309048241
H          -2.61962323546836   -1.88722232408091    1.24256577228136
H          -1.70548959974545   -1.31657873392912    0.12871435405224
O           0.11601565854202    1.20051662757431    1.73057817176595
H          -0.39370686560236    0.79728217978399    0.88993717837995
H           0.22105740850171    0.39625600698750    2.40480035423619
H           1.06753228251375    1.37755384238693    1.37591367932510
O           0.57333382973309   -2.53846477389818    1.29825554639841
H          -0.35952687585805   -2.66785324231380    1.03836356653469
H           0.96684494713819   -2.02135679323863    0.57146036533027
H           0.50565762574493   -1.55363662979151    2.50441567007667
N          -1.36381599782727    1.72708697529918   -3.10285183715289
H          -2.21230398031316    1.95774010670081   -2.60255414947316
H          -1.30264072924494    0.71206851495055   -3.17251314376666
H          -1.42640093109947    2.11535583157321   -4.03517606698064
H           0.00434039843256    1.70255815645053   -2.21725433921810
