    26
        -50.45531801  Gyration_radius:  2.4269791198 Dipole_moment: 6.005
 S           0.84854926563915   -0.76680340362191   -1.52013301448018
O           1.97257138851564   -0.01742816742680   -0.97325146430594
O           0.42688927275053   -1.82767839476774   -0.56182637863291
O          -0.38718370902412    0.22350862421156   -1.55821832060831
O           0.99512084546104   -1.26313486862779   -2.84693599464839
O          -0.12487736915980    0.27015280195148    2.39501398494685
H           0.04236846008693    0.48260148337105    3.31388454006861
O           2.11322820004979    2.60488286808058   -0.59951155695546
H           2.28736969009550    3.01683959617856   -1.44689796964149
H           2.20373800648777    1.63864585255710   -0.74517058374357
O          -2.44820310671727    0.11441320993677    0.92806756294183
H          -2.27259258835990    0.95804993584210    0.49579818927414
H          -1.71758497536511    0.01376245315046    1.56574355080667
O          -0.32199302882648    2.01419450196848    0.30510960508384
H          -0.14677436182550    1.53214005684389    1.13500289555071
H           0.52753466052937    2.43864157749696    0.05823126409576
H          -0.32621790711681    0.91675587484569   -0.83691670243584
O           1.95218328371858   -1.00147839453920    1.47512390839272
H           2.14708646034053   -0.53063497666376    0.63655813592604
H           0.67886429322202   -0.23601977255071    2.07695115503715
H           1.56240199495972   -1.82577878014385    1.16019432317907
N          -2.04487912391812   -1.77488279593284   -0.90114423297478
H          -0.93016336947466   -1.90873192246751   -0.74874330992407
H          -2.32304404384181   -1.05565721682115   -0.17313267724825
H          -2.15083148156182   -1.37515882267802   -1.82980808676027
H          -2.56356075637294   -2.64120130960445   -0.80398882251994
