    26
        -50.46173763  Gyration_radius:  2.45743136854 Dipole_moment: 6.255
 S           0.70675906194163    1.10546379833441   -0.69868829688510
O           0.62409814787234    1.62415019137891   -2.06388534252016
O           0.52213055377026    2.09041984426149    0.33863038853882
O          -0.50376614899537    0.10405371521015   -0.64647727365556
O           1.91495801305326    0.30421843327874   -0.50913009947554
O          -2.32860633216469   -0.42884248338681    2.46232083416216
H          -3.17864384991693   -0.65069350916141    2.07993739467282
O           1.70096251576278    0.19286134105099    2.12740659007805
H           2.03533473509685    0.22942700752785    1.21093008508077
H           1.29817010787081    1.05544550901667    2.26260690138453
O           1.27024264059786   -2.08894254036482   -1.26964273926768
H           1.71914135104410   -1.27422017284693   -0.93582917504339
H           0.70481245615412   -2.36647874585952   -0.53899822456655
O          -1.81388619155626    2.05591278396528    1.56737841753020
H          -1.75404802531321    2.80291517435781    2.16543573532162
H          -0.98546563882394    2.06989769234203    1.03929384368102
H          -2.14479573045612    0.49545090717679    2.18412050781514
O          -0.18741450828128   -1.49811545709590    1.29690324328697
H          -0.98734474980059   -1.27562606271064    1.82626093073662
H          -0.40858567188252   -0.53309409208639    0.14462022303400
H           0.55307820513873   -1.04391440268330    1.76206627326671
N           0.24303950976612   -0.61237449226345   -3.19303781318837
H          -0.76038317686118   -0.72495028331800   -3.30470220762619
H           0.60686213489046   -1.30574309319874   -2.45813828666872
H           0.72514778574034   -0.73017203532880   -4.07910844400363
H           0.42820280535718    0.40295095240616   -2.77027346568663
