    26
        -50.46173763  Gyration_radius:  2.45753835816 Dipole_moment: 6.253
 S          -1.06758323616973    0.51618999982290   -0.89650182409297
O          -0.23335828150735    0.02223482593664   -1.99086856836006
O          -0.84756676415796    1.91328034815414   -0.61368327334572
O          -2.46788200689561    0.13814850432713   -1.08589331279409
O          -0.66585829131447   -0.31217120037864    0.37771298979402
O           1.78232463037921    0.99952790676905    2.73816228675248
H           1.45319818351284    0.56404944459491    3.52550565915856
O           1.88685815643413    1.46209195099175   -1.32635503792959
H           1.42118655018755    2.22558823507008   -0.97302464369714
H           1.19832737032992    0.96969347217595   -1.81270765055946
O           0.43262386465873   -2.38759170440443   -1.30444995409048
H           1.07086134448043   -2.20779128330156   -0.60381248785617
H           0.30737583085771   -1.51491336764279   -1.75102512521865
O           1.86417596617768   -0.46575947881624    0.51727866338040
H           0.34911969785819   -0.36357019872046    0.46656207076417
H           2.10495892064382    0.20211940872406   -0.16602561325373
H           2.01070549936557   -0.00691009353267    1.37612141772604
O          -0.27476999993407    2.51344435233863    1.89232859935565
H           1.05877982124126    1.59408684202042    2.44068301373749
H          -0.21974693227177    3.47052416938555    1.87769203378150
H          -0.55243006805980    2.24822007227402    0.98792681669387
N          -2.13803373766463   -2.34979638192105   -0.73373729432545
H          -1.08618245568017   -2.47006868105109   -0.91380064822753
H          -2.35692762990504   -1.27231483137307   -0.92081719132840
H          -2.68600473440417   -2.94364569456932   -1.34897922407285
H          -2.34415170815383   -2.54466661688104    0.24170829800809
