    26
        -50.45997510  Gyration_radius:  2.57021061009 Dipole_moment: 7.040
 S          -0.86917731104540   -0.34782659141085    0.45537602325048
O          -0.10137698497309    0.43719579225702   -0.65293433356903
O          -0.35647634718474    0.03618340686534    1.74943313090457
O          -2.26717440448602    0.04929835966209    0.24371245827227
O          -0.67843843129627   -1.76938298792884    0.17189561390220
O           2.80377387728124    2.26478276448995    1.14124505684376
H           2.98943006606716    3.00479579461235    0.56138095230425
O           1.65081508378357   -1.84203441750838    1.50467319485539
H           0.85690229425410   -2.08860601977879    0.99830000501451
H           1.31019894311241   -1.24470129843506    2.18000733369663
O          -1.53958621447127   -2.54225853946512   -2.14529813334156
H          -2.13041654035704   -3.27685167980908   -1.96961678895328
H          -1.11831087013563   -2.32598251693074   -1.27004825339611
O           2.33596458216431    0.03362554255452   -0.26470038335323
H           0.92546300709283    0.28114530349429   -0.53179977129903
H           2.62554449930606    0.81367191018530    0.26365252819041
H           2.29697301532072   -0.72296668976985    0.36540784568400
O           0.27988435557322    2.57213507221414    1.99669375622351
H          -0.02159677493743    1.64438606082608    1.86796419572298
H           0.16527597327612    2.75122788626875    2.93190556506137
H           1.89413225435203    2.41183690492821    1.48727637486921
N          -2.23472740293087   -0.01255473416220   -2.26419943576346
H          -1.37257174695990    0.50292618799569   -2.43952608649748
H          -3.01352661768732    0.34540969925831   -2.80660053306006
H          -2.05255739473228   -1.04448615533198   -2.41966520086687
H          -2.37842089038043    0.06903094497244   -1.15453512467488
