    26
        -50.45114701  Gyration_radius:  2.59838679001 Dipole_moment: 3.630
 S           0.15732123863119    1.61434997996060    0.62113888411623
O           0.72355883043938    1.63334335948179   -0.70272311270088
O           0.98323138508255    1.02612307911430    1.63633655778543
O          -0.22103803490067    3.04343832805896    1.03368667110217
O          -1.19720466584677    0.89596450402261    0.55616822115466
O          -1.02361571973235   -2.51854302384102   -0.96290570671592
H          -1.81985761077208   -2.54208688007542   -1.49406416050777
O           1.44019714164762   -1.50358787221160    2.13125429660689
H           1.38568774436788   -0.53763453773448    1.95419506015930
H           1.90033685837629   -1.59824953381380    2.96691188821626
O           2.08292284421595   -2.52595152693106   -0.38113546214595
H           1.97649616920159   -2.18902669437350    0.52257257760238
H           1.37782811301612   -3.16675841297126   -0.50747890179959
O           0.68550002752549   -0.77528684488608   -1.94665369460739
H           1.44285693884424   -1.25741072563299   -1.56569657319470
H          -0.42456653664669   -1.84977048237376   -1.39093393301723
H           0.72169864020225    0.11988772938674   -1.56852647006350
O          -1.19883146945306   -1.43606653524807    1.43356364029940
H          -1.20682471044012   -1.93579034702122    0.57725723961751
H          -0.31295787345220   -1.58552188548520    1.81351895234798
H          -1.21794776981766   -0.07546552122766    0.97881837576717
N          -1.32708459558945    3.49325223015207   -1.23287796652645
H          -1.33162743367084    4.35700822109968   -1.75905410575871
H          -0.63591697826231    2.86007705980674   -1.62560837382267
H          -0.72197210026458    3.39397374259564    0.21276588669453
H          -2.23819045267886    3.05973260013665   -1.30052980063182
