    26
        -50.45075342  Gyration_radius:  2.56252193201 Dipole_moment: 4.137
 S           0.72798524012838   -1.22104768301606   -0.97959341601536
O           1.57840505043516   -1.86781712091060    0.00228877200576
O           1.28013693060683   -1.51219653888106   -2.40575758603243
O          -0.63693054465217   -1.75127624541615   -0.96064980957651
O           0.72154748637186    0.23440532141165   -0.79824079764525
O          -1.97165536383602   -0.21543466728560    2.09234734230240
H          -2.26802722145908   -0.92220122831210    2.66775524357114
O          -1.35090964504457    1.77263719780553   -1.05735559835295
H          -1.35868756290188    2.25722949856807   -0.20827412418191
H          -0.48240817226687    1.29282533816203   -1.08438605215664
O          -1.63819460598678    2.52614016455389    1.53483016858812
H          -1.78899092184588    1.65249671690364    1.92501510029010
H          -2.30208335094391    3.11534693670183    1.89516611582101
O          -2.55864926327657   -0.30417241450592   -0.44857334555071
H          -2.46760523996260   -0.28805006535945    0.55195834774376
H          -2.15621332517831    0.64405137793780   -0.78784252498715
H          -1.79033037706526   -0.98176671281207   -0.74813497520792
O           0.60436438620554   -0.28764238244665    1.85991647143432
H           0.75085164224464    0.43024854744440    1.22887664766341
H          -0.97000085948457   -0.29817980487928    2.04280647228999
H           0.98539118160801   -1.05779311887872    1.38704966045020
N           3.58387118697655   -0.58983994483818   -1.55339572593846
H           3.42355381736207    0.39666893115168   -1.39492258014572
H           3.28972320614132   -1.08710881342027   -0.71679627673932
H           2.21999116613222   -1.19916119122056   -2.34912418185256
H           4.57486516967182   -0.73836209847695   -1.69496332775975
