    26
        -50.45075339  Gyration_radius:  2.56171414787 Dipole_moment: 4.148
 S           0.91828707242294   -1.46432864763646   -0.03935062958532
O          -0.12526500877135   -0.75720657380350   -0.78923864678788
O           0.85797962185198   -2.96355685137327   -0.45428679027459
O           2.23411438637207   -0.93650347697591   -0.34782630115598
O           0.63499044929812   -1.43310636983018    1.39708099230326
O          -0.00842272042917    2.14041253474721    1.92879898332598
H           0.60930070972178    2.44872506517197    2.59347201703437
O          -2.15656936857796    2.59474558375120    0.16231221070478
H          -1.41095003653107    2.65163176617788    0.77791966226396
H          -2.79954638261314    3.25017875283469    0.43566558830023
O          -2.46073147413332   -0.10336522523710    0.13383732833183
H          -2.49965431297742    0.85483773864582   -0.05565925560764
H          -1.66262902899973   -0.44048810229229   -0.34992335814451
O           1.26484155345747    1.50147723859671   -0.23099623536548
H           0.54451336980170    1.90974548943449    1.12020289897112
H           1.86228634157656    0.72555687452360   -0.17868930413793
H           0.54087964088844    1.16302569602449   -0.77555764434898
O          -1.24570102448243   -0.12720002359968    2.29456219021622
H          -0.81538673075107    0.78082775062730    2.27814302141224
H          -1.90004680623453   -0.14933432126304    1.43115485298352
H          -0.45521434041305   -0.77292474790303    1.98086808364095
N           1.65314249065204   -2.19059537970283   -2.83233585379535
H           2.22094377564674   -1.56790882210889   -2.26362756577310
H           1.11617498165504   -2.94052784764657   -1.41180029171429
H           0.87622660188543   -1.65144603531809   -3.19270674523866
H           2.20643623967471   -2.52267205582140   -3.61201919755589
