    26
        -50.45871487  Gyration_radius:  2.56140184981 Dipole_moment: 5.905
 S           0.31440504004777    0.25586007268889   -1.04542574934705
O          -0.49064368414642    0.66987534829041   -2.19143781586220
O           1.07572753607242   -0.96285148851600   -1.35740524151336
O           1.13722921928479    1.30430860313292   -0.48963015888248
O          -0.73654171895989   -0.16473290946109    0.03699976253885
O           0.27855858158018    1.67781869457053    3.31948332863769
H          -0.55207092939706    1.74977394667173    3.79198302451710
O           2.76139128636377   -0.58376405439678    0.69289777504428
H           2.76121892683504    0.37005629666162    0.55357908864451
H           2.31549283786571   -0.92848782144476   -0.10159554267269
O          -2.56677662151494   -1.97457120536882   -0.77972222354584
H          -1.94771221082262   -1.35443479002582   -0.34122017899571
H          -3.43900004136184   -1.58688839469411   -0.69003627307245
O           0.00307578084525    3.10024686098039    1.06753304177850
H           0.18722689618276    2.24645066478223    2.52085692550164
H           0.55253396203561    3.87901024700427    0.96096438217977
H           0.35934057441720    2.43743257475447    0.43488130099910
O           0.51884597390619   -0.69222771325404    2.11872502446948
H           0.48786771278737    0.13930856446467    2.65080778856628
H          -0.23364578830326   -0.40351046313120    0.93993636437635
H           1.43849999196263   -0.75691524967987    1.76597845808687
N          -0.86846386320671   -1.73210573688701   -2.81839539527102
H          -1.64096612818883   -2.06473742641230   -2.20086525301519
H          -0.86675829904829   -2.15505980081488   -3.73953505490490
H          -0.89463973793321   -0.64706961040887   -2.80183727907842
H           0.04580470268928   -1.82278521948960   -2.29752010921733
