    26
        -50.47166720  Gyration_radius:  2.38840692483 Dipole_moment: 3.168
 S           1.10589517040825   -0.40800133949264    0.79362978206006
O           1.11390624114298   -0.53621974005077   -0.66634134054513
O           2.01692442184785   -1.52395381898881    1.37000155897270
O           1.65786339463034    0.87549459918033    1.19877810964989
O          -0.23525237322478   -0.60894697382046    1.33205394045635
O          -1.38398493816577   -0.16563698661659   -1.57062393450902
H          -1.89801929441456   -0.87637713559347   -1.17055192009268
H          -0.46252126899281   -0.34819902099451   -1.30582245943659
O          -1.76199711903775   -2.41435286215337    0.22147036181522
H          -1.25109771359615   -1.71586563885577    0.69368719247813
H          -2.38322943351689   -2.76897425520701    0.85907271654914
O          -1.00989038041774    1.89604155295161    1.76210299681774
H          -0.84874782405739    0.93426042764213    1.68837075133443
H          -0.19714329616378    2.24636525430644    2.13428561300364
O          -1.25759048913102    2.39615122870891   -0.83915327272451
H          -1.51989612453738    1.51083928122453   -1.18130598321946
H          -1.34141466168926    2.32900939758975    0.14112289509968
H           0.18729025956622    2.34379644590638   -1.02218448429040
O           0.84161414507768   -3.20185345096871   -0.25021121849959
H          -0.12262499837134   -3.19983912199400   -0.10862481506480
H           1.00051928849100   -2.47209179842027   -0.86502175410371
H           1.68880089846846   -2.33834023097576    0.91265819633664
N           1.27639713457192    2.11057427630911   -1.05190041689110
H           1.53871410430148    1.77819545973397   -0.07609132501980
H           1.84735506058884    2.88514083355753   -1.37302783940611
H           1.39812979622565    1.27278361702122   -1.62637334078587
