    26
        -50.46385735  Gyration_radius:  2.40988513619 Dipole_moment: 6.525
 S           0.51611150444491    0.24354120829521   -1.52076422940113
O          -0.04188567742154   -0.19780246788308   -2.80650154371795
O           0.88416886395780   -1.10214716720201   -0.82317335633306
O           1.68228498926460    1.07833974208464   -1.62312486691990
O          -0.53247002403329    0.85837242454382   -0.69872417507641
O          -0.65899207850978   -0.21582897452373    2.52295069801705
H          -1.29219041900513   -0.57096251583086    1.88882975974852
O           2.38533538923481    1.94076168118970    0.74935714158933
H           2.11921654548165    1.70227537128891   -0.17170310087888
H           3.28334496480956    2.26995288405684    0.68641842166214
O          -2.32004232343773   -0.74824176461732    0.12538649349719
H          -3.14752882021221   -0.26456114045964    0.16040990638452
H          -1.62464404128526   -0.07694716442569   -0.15153706017388
O          -0.29468642498866    2.27826595605182    1.58177261208419
H           0.65563316505599    2.44679516172187    1.59157738465913
H          -0.46540170545064    1.93629427706201    0.68645565999138
H          -0.62438669980384    0.75278571234610    2.35517943019234
O           1.74008735809345   -0.59945842306858    1.47566917733349
H           1.28692738004588   -0.92358001963025    0.11922039012335
H           2.06522984864751    0.31827827447735    1.39462611772437
H           0.89512508331293   -0.54402025250185    1.99216689113530
N          -1.33271425799497   -2.15452426940413   -1.91608355557843
H          -1.88160513519362   -1.73738320049329   -1.12177293013956
H          -0.58534775608608   -2.72475419165562   -1.52428469655059
H          -1.91421150220290   -2.68292548368422   -2.55836567001955
H          -0.79735823612144   -1.28252565821234   -2.41398490920454
