    26
        -50.45235265  Gyration_radius:  2.59576563467 Dipole_moment: 4.469
 S          -1.07767190269563   -1.09266702480106   -0.28007108410887
O           0.30932637808655   -1.24497157990809   -0.67565283905052
O          -1.71999947314556   -2.50669189353345   -0.26762544945645
O          -1.17425940647438   -0.57435665952743    1.10344863507489
O          -1.82967113549105   -0.24183303841363   -1.18769761861065
O           1.15302792476671    2.29610803960551   -0.05403534315477
H           0.74067043053029    3.15954616812172   -0.00132161101233
O           3.60909317885352    1.00669734136122   -0.40715386298178
H           4.35015166952757    1.49238105062022   -0.04260780115260
H           2.83538469973680    1.59050545047111   -0.36426027672059
O           2.44177894024058   -1.10244125948675    0.83932414489730
H           1.73314195206148   -1.38653238495487    0.21728031906371
H           3.02451121803503   -0.51320874804125    0.31906495347214
O           0.20170306548506    1.10909614718257   -2.13089931136080
H           0.76396414958511    1.85259500554236   -0.87574427744310
H           0.77981610077389    0.34736340112664   -2.24573851181321
H          -0.65873024834937    0.70491007405688   -1.87036232318791
O           0.87369200054534    0.53839812435843    1.86448963185690
H           0.96234103101411    1.28413375973935    1.19986056286645
H          -0.06054942720265    0.04436817451575    1.59993200724054
H           1.60757484155588   -0.18271886380611    1.56239383804995
N          -3.94289853655536   -1.30650635433501    0.38302030684290
H          -4.95025059721776   -1.38059500898399    0.31792012707038
H          -3.69890878727892   -0.95411182227462    1.30028716782994
H          -2.66038821330309   -2.31353349728261   -0.00786855406648
H          -3.61284986307787   -0.62593459134601   -0.29598281014738
