    26
        -50.45235262  Gyration_radius:  2.5966620976 Dipole_moment: 4.460
 S          -0.55239908072572   -0.05936484513738   -1.45562190859440
O          -0.53166456650273   -0.34420029111815   -2.98234715218232
O           0.69103684464676    0.60614382709747   -1.11739149812558
O          -1.72235211057707    0.74472715968757   -1.14256213683716
O          -0.64250582287420   -1.37529301671208   -0.78322242557075
O           0.06916115706303    0.51015983408929    2.52039014677957
H          -0.65001756483295    0.45187907456810    3.15109083248857
O           2.77797482632797   -0.40131946543850    0.10386929478345
H           2.97333313089702    0.28356310336963    0.77489024137213
H           2.16459379271823    0.02685251752287   -0.53662249360156
O           2.75056122677376    1.25677374184814    2.25205906650307
H           3.26879782250995    1.10382479031978    3.04326184888119
H           1.82102453203794    1.10461628381005    2.48465302251091
O          -0.61877052607814    2.21527934255265    0.71803207359620
H           0.19844172523227    2.38405009748590    0.23720133024869
H          -1.17774022216586    1.74167307882939    0.05857526404953
H          -0.22520955717961    1.18364520535090    1.82560168943697
O           0.84975345261607   -1.57919448942900    1.15133837579902
H           1.76022370067343   -1.19637099254800    0.73389875212991
H           0.51524465897433   -0.84480755547441    1.74660952577743
H           0.17661967632576   -1.56543923426717    0.29463715924468
N          -2.92779094145693   -1.32649084149551   -2.66590389149331
H          -1.41506882883431   -0.77576181647869   -3.13282047429890
H          -3.01634600529540   -0.53521960986590   -2.03397365465087
H          -3.80692042668718   -1.46840851478517   -3.14711348595905
H          -2.72998088355858   -2.14131738377148   -2.09852948227756
