    26
        -50.46954180  Gyration_radius:  2.39871075198 Dipole_moment: 4.983
 S          -1.16021297696252    0.18054841582681   -1.07363772144130
O          -1.48003407615022    0.47875339239317   -2.44238847184931
O          -0.58510990846290    1.35363391524288   -0.38246895590350
O          -2.46324148663120   -0.16227970843047   -0.28632758867127
O          -0.25910256278155   -0.96693519746227   -0.94446661932735
O           0.23687892268822   -0.59896089335208    2.74196449266887
H           0.35415457435310   -0.64772772496103    3.69154420007922
H          -0.34294007843302    0.18603753241245    2.56852404787338
O           1.94164547724780   -0.84157394813549    0.53187674588695
H           1.55919908643825   -0.72772432635877    1.41601638209717
H           1.17088275069304   -1.06273108438298   -0.03274673549016
O          -1.42806858986004    1.34225973522066    2.09726098235167
H          -1.12024873714239    1.47272294317882    1.17165256736808
H          -2.34521974673761    1.06890738558264    2.01966989948656
O           1.00047746301726    0.11750302781071   -3.26206795213618
H           0.04849842570252    0.32595145439763   -3.11537973429404
H           1.74963003406937    0.84241632061894   -2.00496944898769
H           1.05497563018334   -0.83419866438411   -3.14004724363854
O          -1.45402451895534   -2.08155982188827    1.13973287078820
H          -0.88892361243216   -2.13522605635623    0.35246981544826
H          -0.88441835875838   -1.69721846402722    1.83150833503678
H          -2.22814541575262   -0.91593365659856    0.32313586166739
N           1.89811926756731    1.25696948362505   -1.04329322653418
H           0.90893109948441    1.50267315088887   -0.73168969520054
H           2.52461422416873    2.05360825888780   -1.05042668311467
H           2.19168313349916    0.49008453018975   -0.37544614419201
