    26
        -50.46405132  Gyration_radius:  2.41191287797 Dipole_moment: 8.299
 S           0.67072265579866   -1.53115333859819    0.65116307354900
O           0.39558349735451   -2.92586780358717    0.42050880405512
O           1.50615465941411   -0.95098611876280   -0.43045468428484
O          -0.55798375808488   -0.74415717420277    0.74715332792833
O           1.45104512217685   -1.38317134147251    1.97297915422608
O          -0.95112818299332    2.09404959201200   -0.92154118816639
H          -1.39257570071389    2.91452741773559   -1.14505346812879
O           1.46861015756601    1.17049602280346    2.36312815581756
H           0.54084069948487    1.44249393248352    2.40954764614621
H           1.50999420840253   -0.40016027539027    2.18871985800104
O          -1.50755931422003   -2.70925702458168   -1.36272100924059
H          -1.40637193049629   -3.50999270276568   -1.88189702084630
H          -0.89540877771152   -2.81847667773713   -0.59288956100818
O          -1.24563847412167    1.51274097718382    1.67635582497165
H          -0.98324071752915    0.59289056427802    1.38149698739442
H          -1.10312164968483    1.94358041640235    0.04084352763063
H          -2.08499532589539    1.40986034644122    2.12694558639983
O           1.84832636640927    1.69574333766822   -0.23228957704366
H           1.78565326843223    1.50108923937492    1.49261325713538
H           1.89232035914396    0.72730779957713   -0.35694901624824
H           0.97805110409105    1.96513892268750   -0.55330468566585
N          -0.40059104880401   -0.38424048832980   -2.03373758839361
H          -0.17892664093426   -0.28632940633671   -3.01935596004004
H           0.48475155653874   -0.60143632552330   -1.43977680381992
H          -0.80277101824021    0.48956852832877   -1.65328051982919
H          -1.02174110542692   -1.21425840967235   -1.84820411046673
