    26
        -50.46405138  Gyration_radius:  2.41198044367 Dipole_moment: 8.299
 S           1.11414460998052    0.10285047467151   -1.40260943324196
O           1.29593917658445   -0.67700733743420   -2.59963952361861
O           0.90514337083770   -0.74445967844523   -0.22927452546223
O           2.37112570966009    0.96435409395495   -1.16638734393402
O          -0.04518706829365    1.02318593691982   -1.51873184192167
O          -1.55461290401625   -0.17388676829392    1.92167936390223
H          -2.03615634182389   -0.29615236750056    2.74090150166194
O           1.98040414118570    1.93982792241984    1.19349731713670
H           1.89382689194591    1.18086647426682    1.78791962658300
H           2.28597625089525    1.39255935744650   -0.25771023416059
O          -0.56993888815261   -2.47644376732634   -2.23922786148508
H           0.22896114636834   -1.89984801648970   -2.33174741080249
H          -0.82008337588040   -2.70793580957579   -3.13637512747534
O           1.07825867257430   -0.49834809637279    2.28853878934475
H           1.08662350900909   -0.60973241504688    1.29381600802909
H          -0.60076348180540   -0.31012984894467    2.13058136170382
H           1.49260674488690   -1.28752261857523    2.64019350196443
O          -0.62914716906415    2.32260535602614    0.74665747969796
H          -0.45605671550823    2.00118928560578   -0.16005080294738
H          -1.06191084097623    1.59288825503292    1.20846740171023
H           1.06911484003196    2.30072459762690    1.11000165259612
N          -1.84427301934076   -0.64013484285588   -0.79498482158434
H          -1.16586646656253    0.13953757995719   -1.13517976037985
H          -1.45285173272119   -1.50902217369027   -1.24322612970495
H          -1.76459586258341   -0.66993373066812    0.23593981800666
H          -2.80068121712457   -0.46003187265310   -1.08304900556659
