    26
        -50.46385731  Gyration_radius:  2.40994097152 Dipole_moment: 6.524
 S          -1.59681172575171    0.13837918395344    0.26547408949573
O          -2.69847646304221   -0.79738538957528    0.00053931507166
O          -2.00117041270692    1.41337520850434    0.79289963881400
O          -0.73888393213103   -0.62633721604214    1.31987155359727
O          -0.75326176289137    0.27683746946856   -0.92718713800163
O           2.58976583522646    0.02952129270008   -0.37570516871106
H           2.12078634435248   -0.73276676790477   -0.73402882349069
O           0.06966981125690    3.00863723776998    0.97812171314222
H          -0.75153690334557    2.47216383767841    0.86058441515012
H          -0.17218113851529    3.73695424104298    1.55244319217763
O           0.57196126398473   -1.80142393569233   -1.54480273280695
H           0.63652837883873   -1.82762561254385   -2.50141372657772
H           0.09124322153935   -0.94526684305936   -1.32842226885065
O           1.19509509132407    2.07026575893613   -1.43841199519506
H           2.25595693866692    0.80947626181056   -0.87335344784365
H           0.40390561817060    1.50343471602307   -1.41972681413838
H           1.04442260061400    2.70689347221440   -0.72866083062228
O           1.30089692501377    0.73549876298958    1.82404429951057
H           0.09514553892794   -0.06394033950753    1.58496372414996
H           1.91195667830069    0.45304589675243    1.09548889476360
H           1.02034395172093    1.64428562722888    1.60091735217448
N          -1.31725620453176   -2.89012521448081   -0.00607556640680
H          -0.53709539609146   -2.66000057563922   -0.67282117875779
H          -0.94186508246671   -2.88393230835621    0.94065828398542
H          -2.02595652561353   -2.00025859009727   -0.03928557313353
H          -1.77318266088082   -3.76970616418324   -0.22611121749633
