    26
        -50.46438285  Gyration_radius:  2.63052230924 Dipole_moment: 4.453
 S          -0.26961018634265    0.16124976865110   -0.55936275610630
O           0.94608134482753    0.95070662642319   -0.37601579093844
O          -1.46460387813920    1.14362110011334   -0.64180203115181
O          -0.21363087883389   -0.60020050582504   -1.79218580157303
O          -0.49505314734083   -0.71809159558635    0.60084577131224
O          -0.73232295676529    2.83571517919154    2.79655842176746
H          -1.11187936008916    3.64079528428014    3.15185830882231
O          -0.47797011535280   -3.19127783259301   -2.04078199125242
H          -0.53830286173484   -2.20576459649909   -2.00329787570852
H          -0.36361196064754   -3.41410305408747   -2.96580556996361
O           2.62874880867680   -0.85169283972170   -1.23279879360906
H           2.13819377111420   -0.07979627160983   -0.85921342047499
H           2.36513207212492   -0.86744442721748   -2.15669519004367
O          -2.27274049498093    0.92425752535401    1.75120906286833
H          -1.76346302632666    1.60551998321426    2.25032415474987
H          -1.90112912687391    1.12835481516977    0.27703146367774
H          -1.72739757627838    0.12316851468698    1.76209047148525
O           0.12588509799324    3.37368891661849    0.32293698519434
H          -0.30872295761842    3.08390121281603    1.94152486008580
H           0.57907440597662    2.53842092050207    0.08428503208088
H          -0.65084642003570    3.39833039230324   -0.24234046646151
N           1.12258550143062   -2.63324962218149    0.00615042971558
H           0.43010583546912   -1.91067860147044    0.39531946432378
H           1.87618096606304   -2.04497309579495   -0.45468662226337
H           1.48355823646593   -3.25054212974991    0.72495009166974
H           0.59573891721255   -3.13991565695734   -0.74009821819140
