    26
        -50.45940099  Gyration_radius:  2.5400897634 Dipole_moment: 6.859
 S           0.71711080880923   -0.68115873749592   -0.40217159961487
O           1.15448284421845   -1.69967557352642   -1.36566288962763
O           0.05198598752697    0.40573570536306   -1.29814920666079
O          -0.34453493724635   -1.21002054124009    0.45923821081337
O           1.79854632365578   -0.09624922533138    0.35209782416970
O          -0.73051239207664    1.82096929998208    2.57629335160114
H          -1.63581841197109    1.59042483076321    2.78857041131548
O           2.45593270990535    2.49024954806971    0.42156323362521
H           2.35197509969633    1.52128418784965    0.32915051780919
H           2.70814880903719    2.64470982367705    1.33410010072024
O          -2.36372812882671   -2.20683150454788   -0.81479655900362
H          -2.47221277454842   -3.09190964262477   -0.46189092391789
H          -1.66378827508281   -1.78026894672118   -0.24993724496840
O          -0.19905817591838    2.50707770953587    0.04501821534732
H           0.74971717417059    2.75007092862595    0.10695686536077
H          -0.08914841883288    1.27579663320372   -0.74813103134455
H          -0.46585375571079    2.29566425762281    0.96976324119643
O           0.62718999731704   -0.46026931990084    2.81249127400432
H           1.50073969960224   -0.29125809305547    2.44318328082311
H          -0.19472036124261    1.01253874896683    2.76116132967858
H           0.15184649867202   -0.87095692558322    2.06458999203685
N          -0.84342485686706   -1.59676156375123   -2.87376346352586
H          -0.92907415710689   -0.58944621239142   -3.00350655230725
H          -1.59691038286015   -1.92042346942840   -2.20523719523610
H          -0.84776339614670   -2.09785192333633   -3.75572733654781
H           0.10887249180646   -1.72143998472156   -2.28520383574248
