    26
        -50.45940108  Gyration_radius:  2.54016208741 Dipole_moment: 6.857
 S           0.44939904007222    0.35182729202828   -0.90342112933985
O          -1.09581653131145    0.38487646799495   -0.70884817948824
O           0.61184862504998    0.36353654690763   -2.36299081169425
O           1.04793123858533    1.48728830463004   -0.24538762420861
O           0.90668589140767   -0.92410734299882   -0.34504806175381
O           0.29907621513361   -0.07362273248171    3.22340723838791
H           0.20248245402546   -0.99827029247525    3.45443715707295
O          -0.21798461055179    3.27528682694118    1.28034865269033
H           0.27133893039974    2.73761852530915    0.62484591490476
H           0.40355774446268    3.46488354827453    1.98598750686669
O          -0.17815975570967   -3.01618331433600   -1.41299738750293
H           0.23076208751079   -2.26695328985357   -0.90087779236401
H           0.55594866827684   -3.56844939613963   -1.68811839118689
O           2.42592409421022    0.01065491497745    1.62002024994407
H           1.97914202192542   -0.51299778628153    0.92709366619703
H           2.44130823046910    0.89646745565060    1.24173836298776
H           1.14342986176752   -0.00789445621434    2.71575932062770
O          -1.59216793936190    1.00541103372704    1.66833275639902
H          -1.32094584364158    0.61011508381774    0.28013393609742
H          -0.95542760763199    0.56684059325240    2.27939108675732
H          -1.30209123423129    1.94229841672361    1.63407865471499
N          -1.29611617028363   -1.16473911073765   -2.91148813499067
H          -1.58121759139029   -1.30473081679796   -3.87487291265108
H          -0.42735557177585   -0.45742682579575   -2.79327622660183
H          -2.03692131643055   -0.74952389641500   -2.34786094327971
H          -0.96463094098887   -2.05220572971773   -2.44038689858635
