    26
        -50.45940116  Gyration_radius:  2.54048278565 Dipole_moment: 6.854
 S           0.65189886510278   -0.48795601819574   -0.69093439839405
O           0.94359033273648   -1.14317607434478   -1.97256175801533
O           1.83184190769920   -0.09522383134903    0.03986697295902
O          -0.15644826098457    0.77773003962375   -1.10479078531673
O          -0.25642135948506   -1.31120939970325    0.11279523986779
O          -0.33665490639274    0.92391069198860    3.08694593970038
H          -1.19586568691335    0.59084474123069    3.34887901796387
O           2.46876094872395    2.38466925454550    0.79544554868851
H           2.86023023961559    2.27325737547440    1.66407808542259
H           2.36030430391308    1.48342737327653    0.42904487934834
O          -2.43958148372746   -1.99641451490159   -1.09515166987646
H          -1.66451941707301   -1.71894457764345   -0.53557537809142
H          -2.48135750726978   -2.95138386396396   -1.01829904794143
O          -0.21257024266760    2.36379474726653    0.83525599455326
H           0.73202376729826    2.62986756486758    0.82871238956059
H          -0.21714009585535    1.43407051456065   -0.30169882289316
H          -0.32952143221485    1.87109572076109    1.68068906973078
O           1.06099381744316   -1.24347611033945    2.41589929896860
H           0.22802892561630    0.12806829932660    2.93610529700180
H           0.47949471702907   -1.43833928333992    1.65573857652305
H           1.86487756533625   -0.92260890475951    1.99297415333578
N          -1.26750286944186   -0.70797150855784   -3.06717020895136
H          -0.23329618987117   -0.94852165865900   -2.69109877330665
H          -1.40484457814393   -0.91933094575910   -4.04975031231387
H          -1.90350952718766   -1.26110455877037   -2.42764117378611
H          -1.38281182327359    0.28492492734127   -2.86775815471145
