    26
        -50.45940109  Gyration_radius:  2.54021503006 Dipole_moment: 6.857
 S           0.33436622285448    0.31605383833935    0.96414631578712
O          -0.02845218517911   -1.09169485182523    0.77593535665443
O           0.10709481765839    0.72533285332670    2.35618173802799
O           1.66172916483313    0.61194526869301    0.48342323299165
O          -0.71253302418282    1.14763174971631    0.16468121068605
O           0.94715673584172   -1.31174565579591   -2.80591049543693
H           0.33443467612888   -2.03254267179670   -2.95649482171026
O          -2.42592865290905   -1.69495049987444    1.53923765690917
H          -1.52136460681731   -1.53411863392939    1.15617962280514
H          -2.32026806708409   -2.43226735926076    2.14325248209033
O           2.27530896720293    2.15881712404097   -1.60401677307588
H           3.01765380312430    1.71341100522754   -2.01713924925837
H           2.12161479091832    1.69853675783200   -0.75387094664986
O           2.14919749594342   -1.90748350181913   -0.50331868997738
H           1.31962885207512   -1.81637734392704    0.00409921742401
H           1.47652307782241   -1.56746053747404   -2.01260477470945
H           2.64323647776849   -1.12094532970552   -0.24774370910428
O          -0.09504305834005    1.09228801215316   -2.26395150833973
H           0.22788923686360    0.19651629995989   -2.51781040069263
H          -0.49046672757941    1.11017556529448   -0.84956314162085
H           0.71355677804826    1.64643330909795   -2.21731911475575
N          -2.39369632630848    0.83668258903723    2.25512432754461
H          -2.61665534681223   -0.17808079177707    2.05508926579751
H          -1.27936178514805    0.83923552816633    2.41984205204439
H          -2.52273123280461    1.37682508886441    1.40043424910193
H          -2.92289008393705    1.21778217741534    3.03211689748532
