    26
        -50.45793253  Gyration_radius:  2.46048859543 Dipole_moment: 5.065
 S           0.43837261628904   -0.34493674775051   -0.84810916240302
O          -0.10035153555105   -1.27735485494082   -1.80379502249412
O           1.11585558675838   -0.94810224641508    0.28214957063427
O           1.51891485568792    0.55580183936523   -1.54680043736535
O          -0.59991250793903    0.60779734116351   -0.38718146451371
O          -0.88069204526214    0.14335804001682    3.23255397926754
H          -1.56579542927638    0.49316465961371    3.80551410748806
O           2.55016265791754    1.01630179744426    1.16639119841078
H           2.16983059564124    0.13921391416299    0.91233854887120
H           2.87782061656932    1.38888040318837    0.34315682527056
O          -0.70787827206248   -3.03071970008882    0.19819465530055
H          -0.63150827915500   -2.63990841814175   -0.68688812069429
H           0.12687944475691   -2.80410065553867    0.62329277988302
O           0.18266240956065    1.78562075206109    1.64997260240080
H           1.19221098969706    1.58756520062225    1.58436338858375
H          -0.19699374284228    1.36658939729256    0.75498890434757
H          -0.20943886939296    1.15212132731254    2.38989069495640
O          -2.09463021571022   -0.97874486322868    1.24330194591825
H          -1.75637670867376   -1.86362236531307    0.98692640385815
H          -1.35432486947459   -0.40064021011581    2.52978608766110
H          -1.76518148717530   -0.38223854637109    0.55061018273279
N          -0.11617965567561    0.95697907060837   -3.52259499151092
H          -0.43298729087545    0.02549754923105   -3.26235973479638
H           1.05904366731294    0.85225644871549   -2.38791647348309
H           0.02936284426063    0.98642281791984   -4.52363822946306
H          -0.84886538538946    1.61279804918047   -3.28414822885384
