    26
        -50.45214731  Gyration_radius:  2.42666607464 Dipole_moment: 7.341
 S           0.35491249603492   -0.27390118944558   -0.87664349627034
O          -0.36433683694574   -1.27119755527482   -1.72720783800935
O           1.12915412876431   -0.93342038453721    0.15619097576412
O           1.15985209977082    0.61748856299269   -1.73473954485838
O          -0.71979095977847    0.58095212864698   -0.25708411660046
O          -0.34447682272970    0.13853744532381    3.34227310090760
H          -0.79999541110519    0.61725095272557    4.03707278142069
O           2.82132182185562    1.12839153809817    0.45841341471607
H           2.47464820906405    0.22675027966848    0.56263985710713
H           2.58822503708856    1.34335427417355   -0.45289118549743
O          -0.68391372009744   -2.82460802572960    0.44161410885999
H           0.21110305967362   -2.49949660910178    0.64421041859725
H          -0.78295112633774   -2.56079476775912   -0.49144548581073
O           0.56622338228625    1.94129611081852    1.70225072823614
H           0.05325823106774    1.62616327874607    0.93625845982003
H           0.11351608753020    0.83439710653566    2.78224236772772
H           1.49994077209023    1.80624005202956    1.43800880363624
O          -1.80219369349534   -0.77385067730512    1.46984190415930
H          -1.46354684041382   -1.69680361769381    1.17791430571767
H          -1.25250764031476   -0.48693399680891    2.29642584037927
H          -1.38855489740742   -0.11974054417492    0.67005342059834
N          -0.71379768521238    0.54728138242472   -3.38058024764313
H           0.18559637011007    0.84831516363619   -2.83128472598761
H          -0.78125394857019   -0.39938305332384   -2.79992609290882
H          -1.49449382386477    1.16557120405926   -3.18843867990963
H          -0.56593829900404    0.41814096126032   -4.37516909415607
