    26
        -50.46954184  Gyration_radius:  2.39872900464 Dipole_moment: 4.982
 S           1.14693440959461   -0.97243985418030   -0.52194884680458
O           1.45351973085235   -2.25897111192494   -1.08359648317629
O           0.63003369055311   -1.09126927285762    0.85781466865644
O           2.44956321359138   -0.12176808476356   -0.40099392866205
O           0.20449114655513   -0.21025115204664   -1.34423508905863
O          -0.20970105565718    2.58192798942967    1.10549403725052
H          -0.30900495869378    3.38511936616784    1.61832647060776
O          -1.05429237599532   -2.73748892161783   -1.74608073978795
H          -1.14347418899756   -2.08891305828276   -2.44968067614370
H          -0.09250523932186   -2.73117558890478   -1.53161461926227
O          -1.96282803421624    0.90656711082008   -0.29851038217585
H          -1.56056493558128    1.56509972888190    0.28916115309326
H          -1.21121859547114    0.57914616548577   -0.83676964317186
O           1.39335984704127    2.14387051308671   -1.09902511885280
H           2.19659580177543    0.80951380538508   -0.65289733186451
H           0.81262507339711    1.52863796243393   -1.57457325085607
H           0.85128261022150    2.48151366595338   -0.36215439184974
O           1.51531311475378    0.94525540868090    2.24628416895476
H           1.19642417760752    0.11215389507824    1.83063116477217
H           2.41984029325767    1.04688990025836    1.94064726172842
H           0.39595926256186    1.99044960914264    1.62104558514222
N          -1.86704632504576   -1.59089746980269    0.50185901894916
H          -1.75250418485214   -2.13546674976457   -0.39745741201870
H          -2.17747081226387   -0.60496879849069    0.27415194240936
H          -2.46210656226150   -2.06116653873042    1.17408096319522
H          -0.86322510339479   -1.47136850944959    0.84004147893431
