    26
        -50.46954183  Gyration_radius:  2.39873165452 Dipole_moment: 4.984
 S          -0.77279301686790    1.04180712380910    0.92230802023208
O          -0.51991242220565    1.34180048113229   -0.50281124770288
O          -0.66440684775537    2.22031978867226    1.73717521409796
O          -2.23264348581237    0.49285495904305    0.97389943507896
O           0.11288466528822   -0.03494084551890    1.37104172557360
O          -0.59943053290644   -2.29320642499966   -1.52042593620288
H          -0.78625230972611   -2.97823809878726   -2.16361392533068
O           1.96622744386007    2.07671534598749    1.86475955056498
H           2.04093567091936    1.29276508332707    2.41565607748240
H           1.00506739994275    2.29385063486177    1.88186458481823
O           1.72556527625639   -1.29914358523986   -0.31404482973255
H           1.07816496923696   -1.73614622797363   -0.88920438768230
H           1.18685588781480   -0.95429748511381    0.42939259409612
O          -1.60385786690222   -2.02463647402738    1.03744766178084
H          -2.15374671589697   -0.50063828069548    1.00881881248391
H          -1.30558712717922   -2.29933788853715    0.15069648055947
H          -0.81793885632075   -1.64017243444325    1.45738858762692
O          -2.09685366942358   -0.16548450072120   -1.95205523618046
H          -2.92388050716085   -0.15647710947297   -1.46440748371723
H          -1.52269075350872    0.49033504543596   -1.49513019507086
H          -1.14378601258627   -1.50642597003224   -1.77961486122362
N           2.04579943674066    1.28190457075024   -0.66319491937520
H           2.16227059223183    0.22986181694895   -0.67329202485286
H           2.23455160203951    1.64324305795917    0.31267017588964
H           2.59028106993290    1.75957952396412   -1.37209362598742
H           0.99517611999296    1.42410790368226   -0.77323026723608
