    26
        -50.46954166  Gyration_radius:  2.39863010206 Dipole_moment: 4.975
 S          -1.41123538772684   -0.57320878109241   -0.45909918147941
O          -0.30314525280338   -0.17204664306581   -1.32891006187654
O          -2.12719762683694   -1.71060134379786   -0.96741250064410
O          -0.91428757690581   -0.81246355735474    0.91225676698177
O          -2.37304231545997    0.64990385806568   -0.33999298962040
O           1.04886810494590    2.41277668581523    1.00385474269300
H           1.40996776561221    3.16011950708643    1.48250965277287
O           0.07765771949561   -2.97794339491828   -1.66695142828404
H           0.34431671006405   -2.41187049133992   -2.39640735268189
H          -0.82511316149360   -2.66047074937266   -1.43166584648630
O           2.13933545360088    0.22951600893139   -0.37369860317199
H           1.30577545996846    0.14246716330304   -0.88300454883795
H           1.98498791092399    0.99767066086104    0.19808969950233
O          -0.67991592676768    2.44318720099768   -1.14781527600445
H          -1.84753785741904    1.44525932705215   -0.63347887368926
H          -0.03544670195278    2.61197484502551   -0.43571123130799
H          -0.33914977143809    1.66241919656185   -1.61266072497712
O          -1.06545267458040    1.43825359101006    2.24290856772015
H           0.30485905382741    2.05764490005860    1.55423259752745
H          -1.90129654064483    1.81186226099527    1.95366223383713
H          -1.03946012440624    0.53555984452343    1.85181502537141
N           1.28468900638717   -2.08595870577843    0.51845665519959
H           0.97445263891077   -2.59052142498974   -0.35770633325550
H           1.88329907825977   -1.25581468555373    0.24850584930146
H           0.38169360924095   -1.64552620635420    0.87462756052008
H           1.72237839720137   -2.70218905666262    1.19359559088010
