    26
        -50.46954176  Gyration_radius:  2.39857061851 Dipole_moment: 4.983
 S          -1.21237061366309    0.10307850088104   -1.02477824419361
O          -1.71922623717017   -1.36664848639336   -1.16033053696556
O           0.18310822754968    0.07996515817198   -1.51150314492955
O          -2.03296146248003    0.97819835406714   -1.81560418026514
O          -1.23914418449564    0.44260482739572    0.39973754331831
O           1.39903663642712   -2.01196298797788    1.38601845094234
H           1.99151264233521   -2.66967069935329    1.75249772702740
O           0.99486593518817    0.72946539476564    1.80084281731060
H           1.34453456189780   -0.17475571829066    1.76908962112180
H           0.08591668362225    0.64422153667008    1.44241875925537
O          -1.23328929232781    3.13850224998793   -0.53069648973710
H          -1.65956910642659    2.96885285999813    0.31373542899576
H          -1.59835942489091    2.44602166648702   -1.12927401166799
O           1.11476640646141   -2.34968591077325   -1.21413794843515
H           0.83343036419549   -1.43229395243382   -1.43258114356922
H           1.38990553706723   -2.15546014688561    0.40525620396686
H           0.37172039190614   -2.90475743695998   -1.46251847548628
O          -1.36102234000980   -2.03798519551535    1.32117466178605
H          -1.64601678473096   -1.76983112451684   -0.25112396901227
H          -0.40659146059694   -2.15814041392621    1.48071276217946
H          -1.51288232803324   -1.08475191538890    1.42150997853443
N           1.22265783882537    2.14959041295603   -0.39412480517963
H           0.34567176579718    2.74067115499104   -0.39992082189781
H           1.35729581701709    1.73622895769253    0.57106254346148
H           0.95224525502839    1.31228864611485   -0.99555428008176
H           2.03476514151605    2.64625427825124   -0.74190844648392
