    26
        -50.45437390  Gyration_radius:  2.5701181329 Dipole_moment: 1.872
 S           0.30240625450906   -0.84320902144514   -0.82288703514503
O           0.12032148320351   -1.63332291694373   -2.11529643578607
O           1.02586977346337    0.39048991406447   -1.11228282860008
O          -1.06135243888696   -0.50842489544935   -0.31824411348103
O           0.99460195642803   -1.67176434602401    0.14498378174411
O          -0.17072229793297   -0.56318164302361    3.65267432582830
H           0.01683003058288   -0.08519607929985    4.46267643368685
O           1.39563984582997    1.60899723650771    1.13689299130211
H           1.35716370118459    1.26719027344733    0.20387736450077
H           1.90854104853169    0.94353858244161    1.62410013311775
O          -2.79493713662806    0.57204034129938   -2.06581635052363
H          -2.19307266587723    0.20370859548552   -1.38824771604903
H          -3.57494036850975    0.01537918766466   -2.05103720501769
O          -0.94667193351219    0.91584844667535    1.68379461618394
H          -1.07774303403455    0.28494879185403    0.81541254003130
H          -0.80247799754855    0.30084509311920    2.47518391906200
H          -0.00009463384135    1.35153850752035    1.50033805011435
O           2.10618510462063   -0.80254751741674    2.27703843521499
H           1.69214582658634   -1.16552634126580    1.44023996202202
H           0.69574211717519   -0.77575562510284    3.23686582287356
H           2.84199498547550   -1.38623499902323    2.46759550050561
N          -0.38788995256904    0.37413593386961   -3.54830075029618
H          -0.23639563244978    0.48310275575813   -4.54137568117783
H          -1.34634561580516    0.62613339178573   -3.30867988836179
H          -0.10666908609583   -0.87822489511635   -2.82113617098973
H           0.24187066610666    0.97549124872126   -3.02836970077306
