    26
        -50.45379095  Gyration_radius:  2.52547909834 Dipole_moment: 3.717
 S           0.37537853617823   -0.27433757061915   -1.33068428139382
O          -0.61541083662417   -1.12893031115329   -0.61680459529354
O           1.59556241619727   -0.15249909526347   -0.56805844823301
O           0.69430775356363   -1.02543197003104   -2.64365006934858
O          -0.22678373658327    1.01067088949798   -1.64768027815538
O           0.16847709824809    1.74784371710995    2.07658695391701
H          -0.23723456770903    2.50036847479688    2.51014250160376
O           1.91083769400331   -0.51786010658596    2.06651260892717
H           1.91425192236212   -0.48153661721378    1.08891550327987
H           1.58411603321555    0.34454789358967    2.35049546903544
O          -0.06867775964211   -2.11144015768202    2.68615771088236
H          -0.03063416298766   -2.84979023995474    2.07465554415881
H           0.78406462766816   -1.61017881525609    2.56603185847255
O           1.25824059279649    2.55553132818200   -0.13355589982783
H           0.58953023037734    2.10225156566163    1.23610645736744
H           2.04739870113121    2.00812593934132   -0.20811375369820
H           0.63864931464897    2.15023844683927   -0.77989305609069
O          -1.38369015924823   -0.26963759252121    1.52628882976775
H          -0.98914786702222   -1.02273369738306    2.10512053164099
H          -0.82816839137361    0.54582913391904    1.73086289830995
H          -1.07481972342523   -0.63149537339818    0.47965272126646
N          -1.74970443695551   -0.59155503551210   -3.40285349995832
H          -0.18644691691205   -1.00377830276753   -3.12245432516752
H          -2.18665459844755   -0.38782163000437   -4.29228577859249
H          -2.36828586100792   -1.18195459997464   -2.86246585806032
H          -1.61515592244876    0.27557370638970   -2.88902973481151
