    26
        -50.45444090  Gyration_radius:  2.55374567721 Dipole_moment: 4.675
 S          -0.44478260389370   -0.42619581583523   -1.27877667738780
O          -0.53529953820803   -0.60250747896933   -2.79996157167681
O          -1.75564843814656   -0.13386157445161   -0.74302318297159
O           0.18624732104030   -1.57751470262270   -0.69963256516145
O           0.44189702339640    0.80645797877983   -1.13422316010331
O          -0.12985444874714   -0.48597371046960    2.73229250428366
H          -0.49717677773483   -0.32774187898284    3.60311811926912
O           3.21901705128104    0.85556157268779    1.03816753375417
H           2.95523689879729   -0.08738126545103    1.17058962783214
H           3.50721019863428    0.92515136840424    0.12666979547664
O           2.05976775059062   -1.52307334042997    1.29491122967559
H           1.43612609518666   -1.32265224012746    2.00685982184396
H           1.50914201561388   -1.65688568767775    0.50556057528419
O           0.70006058531308    1.57515557966455    1.19879469652317
H           1.68909411004943    1.47892413692748    1.25030580108040
H           0.50893863377698    1.17065818759064   -0.11499199490019
H           0.34355401641776    0.87401525755829    1.78833758371867
O          -1.79170283262990   -1.89612619973184    1.26056054033855
H          -0.80090611775078   -1.02510115885445    2.23554322235831
H          -1.99641498340049   -1.22825498357535    0.57867421065509
H          -1.19291685129801   -2.50647450801140    0.81769493057870
N          -1.94365812700728    1.52754130236367   -3.02556130698923
H          -2.71290494365416    1.70495742009961   -3.65777024894588
H          -1.07202481384417    0.21614195176921   -3.09642820243612
H          -1.37587472215682    2.36145458384843   -2.95452936728166
H          -2.30712648149630    1.30372520536252   -2.10318192483350
