    26
        -50.45444089  Gyration_radius:  2.55384819942 Dipole_moment: 4.677
 S           0.23046240388224    0.98717850365047   -0.99371657387776
O           0.47113858615983    1.65079788995372    0.25562817118784
O           0.95856949970783   -0.35227161882767   -1.04349964453832
O          -1.16795260161027    0.77924273069137   -1.29706649599407
O           0.89425028457483    1.77643886740394   -2.12928621485929
O          -1.46392173156747   -0.64229536982022    2.27287412003849
H          -2.20749127665541   -1.05911689963911    2.71064993668545
O           1.12630374735039    0.41354302097431    2.60760225797721
H           1.03078050638944    0.96419531698873    1.81273972934690
H           0.23816916122638    0.07542992999435    2.78884943379787
O           2.31363816770547   -1.84164129948829    1.85125828636327
H           1.99848010691596   -1.00013208620596    2.26205503027165
H           3.01313938804289   -1.59509199776651    1.24412907158362
O           0.05561083682789   -2.03173311353040    0.52660281616819
H           0.88991277403625   -2.16955469040201    1.05099102965775
H          -0.55918760789970   -1.57131971692122    1.13999876620456
H           0.52496146655778   -1.10165278014892   -0.39090761150785
O          -2.22016016172021    1.54937045247118    1.03140323944676
H          -2.04994870250389    1.27074949506032    0.11144462303683
H          -1.81658254557015    0.17629313994126    1.83328507781296
H          -1.49414340719439    2.14928055731365    1.23207405627084
N          -0.17589743873392    0.25699745361598   -3.89497972781335
H          -0.94991277786663    0.15890823840937   -3.24363998515501
H          -0.53197789829627    0.51203913302826   -4.80666887507935
H           0.58980727662604    1.27603670220226   -2.96785686353574
H           0.30195193366581   -0.63169184906479   -3.96396365351298
