    26
        -50.45444088  Gyration_radius:  2.55371068267 Dipole_moment: 4.674
 S           1.19919084769383    0.71589365839203    0.25153096278979
O           1.47824571431952   -0.08711184502741   -0.90452285654664
O           2.51790922107055    1.15775242013464    0.89891310921107
O           0.37435871785017    1.87359833378069   -0.01359178858179
O           0.54920068794574   -0.12193847155344    1.34789004631370
O          -1.97240804921258   -0.54599833652805   -1.87833916112164
H          -2.83185951784309   -0.38906481166747   -2.27203770117462
O           0.15126937665868   -2.37652898872792   -1.60356361710853
H           0.77193051756255   -1.66072907010702   -1.38785615678959
H          -0.64677142611149   -1.93151206017006   -1.92149121238390
O          -0.76214273792550   -3.33089520255495    0.70349323334995
H          -0.39109627718189   -3.14981765882725   -0.19413779107629
H          -0.01009197791835   -3.39017962837338    1.29476975351652
O          -1.72963567031552   -0.89259668600678    0.78807499560477
H          -1.88011392080001   -0.71891616145658   -0.16765904054728
H          -1.54650547270370   -1.86878790329483    0.84840504410555
H          -0.47018976535767   -0.41283833617750    1.11919320757107
O          -0.27905614138442    1.35160871118682   -2.54762389920519
H          -0.13163958943770    1.74264422760805   -1.66541373944413
H           0.52392134092636    0.84805033255810   -2.71740246118958
H          -1.38472605369262    0.19840971038565   -2.17533095902501
N           1.27231912224283    2.67595282241106    2.54675312472965
H           2.21054047875196    1.78665831742255    1.64461157321476
H           0.84883598639203    2.14696560490178    3.29752676613932
H           1.55424033855812    3.58109138745866    2.89905899305373
H           0.58427424994580    2.79828964414410    1.80874956462194
