    26
        -50.45444077  Gyration_radius:  2.55403573617 Dipole_moment: 4.677
 S           1.06307401090740   -0.24826163731386   -0.90621525784476
O           1.69362365468427    0.21905342194417    0.29514916080710
O           0.59094795542965   -1.61328846435301   -0.83761190802759
O          -0.09499084270156    0.66341602253534   -1.29890284304541
O           2.03118181694501   -0.09459917552571   -2.08623462228486
O          -1.04825661086007   -0.60511842903576    2.50059822872226
H          -1.63184385080701   -1.10352290064848    3.07447056800951
O           0.49683212635084    1.73535683107551    2.23410694858458
H           1.05681449687388    1.31709639351173    1.55910481157168
H          -0.02554144670464    1.01367712506691    2.61129748787758
O          -1.42248361858910    3.04369445935583    0.94125772367781
H          -1.00539201769840    3.48197334252677    0.19786736981710
H          -0.68697886086585    2.71279879688030    1.51202073728757
O          -2.00269908884396    0.57425478940753    0.26740460897714
H          -1.71078624862987    0.08893132921584    1.07080696932824
H          -1.99292809988705    1.53478715623254    0.52704071459158
H          -0.95042225716678    0.58084907220006   -0.63751448232899
O           1.00565653367902   -2.07059453574553    1.75865261797920
H          -0.29670741762616   -1.21145616923015    2.26555086848982
H           0.81726364421997   -2.12467385323548    0.80236241993094
H           1.72988420039464   -1.43890113129537    1.81899399827175
N           0.42239331942036   -1.33660735931426   -3.64847023044885
H           1.52511859156602   -0.53264536164272   -2.85963643993943
H          -0.34516519317062   -0.74702963678910   -3.94186722752998
H           0.64772700632025   -1.98086815355908   -4.39484538165330
H           0.13367820676014   -1.85832191236118   -2.82538684082880
