    26
        -50.45526232  Gyration_radius:  2.4158352145 Dipole_moment: 6.813
 S          -0.75101505617007    1.69036143810254    0.48907067500739
O          -0.66856678792217    1.14868279320727   -0.84430163112950
O          -2.18279212635979    2.26692620573560    0.70675959167669
O          -0.55579574861385    0.62150972106286    1.50207061439899
O           0.21049877357535    2.76179649014149    0.72213608446611
O          -1.49217105806666   -1.86022603929049   -1.48613538238202
H          -1.97055067599791   -2.37425835339605   -2.13765950034412
O           2.46565882231057   -0.75581684903796   -0.35072623320082
H           3.15590143369698   -1.41992759114292   -0.31580046370960
O          -2.92313798495702   -0.25543031373827    0.38024486677696
H          -2.74919192845513    1.48872071429687    0.51492157856850
H          -2.52797321616470   -0.70113765495108   -0.38908970030050
H          -2.25800280449245   -0.31802293407455    1.07636317508110
O           0.27555595498196   -1.74288860513732    0.60542195203583
H          -0.35166646454697   -2.00031960831074   -0.09068810592289
H           1.62342720709207   -1.20865614613745   -0.03385260470387
H          -0.09648645350189   -0.91508086887020    0.97545354551979
O           0.51704344140037   -0.45573155202215   -2.56016626726786
H          -0.80449758449143   -1.34823787299289   -1.97831478639711
H           0.09757689947754    0.29770987101126   -2.10272989417803
H           1.34671671913685   -0.58731154648393   -2.08706189843825
N           1.98582008320279    1.13120750673809    1.49732199684166
H           1.49373039846733    2.00151062794793    1.08794885816544
H           2.67980577546160    1.35066647845948    2.20396007704638
H           1.12432170165714    0.67529197621083    1.87954289003173
H           2.35579069927772    0.50866212266961    0.73531057235719
