    26
        -50.45526238  Gyration_radius:  2.41578978674 Dipole_moment: 6.811
 S          -0.81101939535565    1.64518466928150    0.54354706937241
O          -2.26111729114671    2.20862355108346    0.64043512444628
O          -0.73110805703172    0.49164979355525    1.47609754443254
O          -0.56985951223730    1.22030335380714   -0.81272155033857
O           0.11153424356753    2.68705607966144    0.97978079326445
O          -1.29884614923766   -1.71466017747914   -1.80795417027586
H          -1.69495784614875   -2.16726201218254   -2.55349455974254
O           2.49321920963573   -0.73653749937606   -0.12338037871449
H           3.17714894359690   -1.40555243409379   -0.06524584718291
O          -2.94647975111022   -0.27099290033494    0.01029220636810
H          -2.79697024260364    1.45291423934100    0.31615934937890
H          -2.46079546356419   -0.64962745083503   -0.74305173697994
H          -2.36892233308661   -0.39953612712851    0.77235962228957
O           0.21004253435972   -1.78987083203249    0.47935404933525
H          -0.20638115722186   -0.99526962958430    0.87411690579756
H          -0.32975994664741   -1.98179643928974   -0.30548679287203
H           1.62146264428587   -1.21005090856434    0.05154512976122
O           0.81657829639819   -0.23363471308741   -2.51205936868010
H          -0.56042741205895   -1.16577712158859   -2.16950324275147
H           0.34279199268749    0.47907414619761   -2.04260061237607
H           1.58567539180780   -0.41083351418600   -1.95834786805166
N           1.79130028259228    0.98530148873764    1.81291468479015
H           2.25079583469781    0.42916420934605    1.04827446703250
H           2.39666083333312    1.13890513613375    2.61233363744386
H           1.34637186519902    1.89049259699608    1.42585661604550
H           0.89306251528900    0.50273246562250    2.05077892820923
