    26
        -50.45450939  Gyration_radius:  2.45184329486 Dipole_moment: 5.288
 S           0.15655488866985    1.81698848153240    1.01736931141482
O           1.02610805697508    2.39048641151909    1.97959427616174
O           0.83385187125234    1.91473469874636   -0.35997684888279
O          -0.23357467537862    0.44044447478116    1.26312244523824
O          -1.13640982982615    2.64771735404600    0.86755829417947
O          -2.29411234652635   -0.91780999556746   -1.25118710797218
H          -2.89854191299882   -1.51097563921201   -1.69879774192729
O           1.75295802883255   -1.65065869021272   -1.01784341733242
H           2.49713060808356   -1.97806302713089   -1.52463635211003
O          -2.93021209536567    0.80270492180008    0.75672994919166
H          -1.91427434825501    2.01655906744652    0.77982544137501
H          -2.81559206377142    0.28921426100089   -0.06815692228549
H          -2.49323538767754    0.28386863474761    1.44017973156540
O          -0.61389124575092   -2.07689594228036    0.36702056162680
H           0.20857779101926   -2.22192118944504   -0.12437425499550
H          -1.73225322948646   -1.47441682871255   -0.63915079705647
H          -0.45688663444376   -1.25351364292531    0.86161269785482
O           0.06391851512216    0.20793180815049   -2.05362140472458
H          -0.84271359365746   -0.10147330007412   -1.87432920410406
H           0.46892515667993    1.26487159522934   -1.06880223293145
H           0.66290512682132   -0.52310868759185   -1.79428409336995
N           2.62349208862496   -0.02957630560293    0.91262100556346
H           2.13018873668911   -1.07469357075609   -0.29130405158716
H           2.83216555122452    0.87628414502582    0.50816228669010
H           1.75574767317772    0.09819276549245    1.42386902772138
H           3.34917324999411   -0.23689181003820    1.58879939075397
