    26
        -50.46438035  Gyration_radius:  2.41492654208 Dipole_moment: 4.125
 S          -0.91947113507915   -0.70834029222344    1.15124667733608
O           0.14152302359685   -1.35453232580778    0.37890012190996
O          -2.27285623077118   -1.29680302343605    0.68264012953664
O          -0.76471824334751   -0.96732073637380    2.57534212740186
O          -0.93123920364989    0.73615320050310    0.90024743058427
O           2.29043270144703    0.09799021768177    0.79608481364121
H           1.63817951740832   -0.61780772062576    0.62158891015406
O          -0.30564599849890    0.30233352096610   -2.91966743023847
H          -0.46021638077748    0.31368951137900   -3.86520104459735
O           0.91478296657638    1.71117954600545   -0.77756915507265
H           0.18541490847770    1.46047067849794   -0.17688556003249
H           2.04116493904667    0.78480173199933    0.13036344789088
H           0.65105307154848    1.36090175454791   -1.63974030813850
O          -2.48964870878356    0.42006799299700   -1.25022805296574
H          -1.79670349906807    0.35611194752134   -1.93623963341982
H          -2.50655427148252   -0.78733262031865   -0.14029478308849
H          -2.09662042374039    0.96382150400899   -0.55085299028002
O           0.36778295294370   -2.12498873086597   -2.11851726595704
H           1.27543280980786   -2.43045978954297   -2.16747682806142
H           0.20278901640257   -1.93738388466438   -1.16709110018808
H          -0.03393237798010   -0.61976207059289   -2.68824620580052
N           0.99006882793989    0.89107384967751    2.86978220340028
H           1.67195693770931    0.60259954425689    2.05056465369907
H           0.47816359125748    1.72137595715770    2.57686298789216
H           0.26474797375817    0.09091707051382    2.90795325897226
H           1.46411323526211    1.03124318674160    3.75643359541811
