    26
        -50.45526238  Gyration_radius:  2.41586087198 Dipole_moment: 6.812
 S          -0.16251507617398    1.30535500065321    1.38896785861655
O          -0.59789503838902    1.45474141889807    0.02282836138473
O          -1.29503536113259    1.81181006937374    2.33259604134016
O           0.06378497403500   -0.12652446789672    1.71312313343436
O           1.04679915460981    2.06639473870312    1.68091728141568
O          -2.24901085167884   -0.82016728059630   -1.47238101080431
H          -3.00093301594392   -0.92834122808062   -2.05584861950617
O           2.01271646706033   -0.67498682938291   -1.50637591673900
H           2.50925649853158   -1.32496628633476   -2.00607799478158
O          -2.66395719501296   -0.19323911766738    1.27377178864064
H          -2.05710768281026    1.26015086052026    2.05276041769087
H          -2.62280556985595   -0.24774457931051    0.30318218132677
H          -1.86068119329818   -0.62790638183240    1.58466584485339
O           0.02541687590144   -1.83530163252295   -0.32730371489952
H           1.21659115175404   -1.16116580377875   -1.12619021499708
H          -0.02001455888321   -1.25731352630385    0.46292440100058
H          -0.81833063152619   -1.68602543646483   -0.78556571191265
O          -0.36700986861987    0.77611821232825   -2.50891777506625
H          -0.44865906009295    1.25021034646402   -1.65957108854677
H           0.50977540787781    0.37678279407124   -2.47341323158808
H          -1.63376585134889   -0.18732566992414   -1.91759744055571
N           2.54072089635499    0.13988900424062    0.99635340784605
H           2.16705621856641    1.13301785078746    1.19962675707295
H           3.44097509523133   -0.05153815225370    1.42307720699556
H           1.74597249823238   -0.37969680258623    1.43749000060577
H           2.51865572661222   -0.07222713110394   -0.03304198282519
