    26
        -50.45450943  Gyration_radius:  2.45192646499 Dipole_moment: 5.290
 S          -1.10729394844014    1.24197604565715   -1.26248410575613
O          -2.52970187715470    1.47039816457282   -0.70648861341369
O          -0.18106127371559    1.33872868195696   -0.14890172936195
O          -1.12865986579172   -0.20594177819402   -1.78094415244974
O          -0.84163234336789    2.10061255577660   -2.35929814341505
O          -0.86341975185171   -0.92631760792515    2.46313581556581
H          -0.84068085173706   -1.33948133557357    3.32698466642262
O           2.05345452366717   -1.57410791644851   -0.37120713046187
H           2.61434436475195   -2.25542997829322   -0.74401502392322
O          -2.11157516310294    1.40640783448102    1.83426731974081
H          -1.83437978164362    0.50515714748655    2.09559649071777
H          -1.29383708277607    1.90808422931168    1.75115209605689
H          -2.49121627624183    1.42994008071517    0.29749275123769
O           1.38356388842626    0.14722056302298    1.69967185309108
H           1.84545415048866   -0.50645078613572    1.15343241939282
H           0.93784559633855    0.72641349729203    1.05692810358819
H           0.03849736011658   -0.52486486042239    2.30323437800231
O          -0.61520027014883   -1.97086162686707   -0.04998027336725
H          -0.83881532204581   -1.67529348304013    0.85145630717347
H          -0.98902234854139   -0.92614599007783   -1.06005854609826
H           0.36229846059079   -1.94691545410730   -0.11517864448685
N           1.71980087390693    0.38789127877806   -2.14652581816627
H           1.25154723179002    1.06714737638472   -1.55493847147352
H           2.45311557758697    0.87406056510011   -2.64918962808328
H           1.98244946751008   -0.85079086468933   -1.05935456333596
H           1.02412467142215    0.09856365123824   -2.82478736721032
