    26
        -50.45450934  Gyration_radius:  2.45176436049 Dipole_moment: 5.291
 S           1.25756371012550    1.63169686717906    0.34245174498443
O           0.84812696957930    1.57327798107281   -1.13884500388967
O           2.73871751343822    1.19509711754914    0.34746077879180
O           1.11565534424613    2.97041163203353    0.78801810116731
O           0.50579753613636    0.63788493786552    1.08719843740630
O           0.84103829915179   -2.63217648204585   -0.17931433055133
H           0.79979753407143   -3.58772499466156   -0.23125187889939
O          -2.41742067969291   -0.23901262596441   -0.96405072863163
H          -3.17017491190646   -0.14637733326585   -1.54932161705496
O          -1.11754116354772   -1.51806120576431    1.12739206732014
H          -1.78614188966794   -1.25486150661764    0.47723397823014
H           0.06223737484042   -2.33186956292607    0.37154154478984
H          -0.60509046619444   -0.70633170127034    1.28777682128752
O           2.57781553945748   -1.18088872244082    1.32835599738247
H           1.91195317924754   -0.91215455220221    1.97005749500487
H           2.10621592260276   -1.75997750192933    0.69618797719830
H           2.79305622643521    0.25018303704340    0.68719245191272
O           0.07563717228647   -0.69140321476035   -1.94491381099066
H           0.60164488849451    0.63579273596836   -1.48245454441735
H           0.45930359593423   -1.41705726194587   -1.41939455186770
H          -0.86364167166616   -0.61983491415998   -1.67471357795378
N          -1.77055005263687    2.14015042861123    0.05299647547508
H          -1.08076086562777    1.84424389888421    0.73662071581136
H          -2.39997250264580    2.78696930207708    0.51366815446721
H          -1.25099377897855    2.66269767882564   -0.64323200103816
H          -2.23227282349789    0.66932598286572   -0.58666069593397
