    26
        -50.45450940  Gyration_radius:  2.45179386545 Dipole_moment: 5.289
 S           0.28118832950133    1.94008027450462    0.71937627296983
O          -1.06736945141615    2.68024434136075    0.85358508478157
O           0.53839257174683    1.88888978671539   -0.79613241379152
O           1.33273132635661    2.67641289170868    1.32181461669198
O           0.09135277527776    0.59047295631509    1.21925294082868
O          -2.46591704449787   -1.18424661949097   -0.42871568528897
H          -3.11826282166798   -1.86013800892952   -0.61602780323312
O           1.53094375775871   -1.68264313619863   -1.28692802636448
H           2.12924921522500   -2.03814245913322   -1.94527120899047
O          -2.66044743052094    0.75265991538127    1.47041251183139
H          -1.78319056917264    2.00620281682496    1.06436630248047
H          -2.73739573992432    0.14114282329912    0.71052337596695
H          -2.00911355425871    0.34975414652812    2.05411351091529
O          -0.31045768994627   -2.03831777367078    0.75840437272353
H          -0.09157045208255   -1.15051794533423    1.09181843347705
H          -1.71092707641660   -1.62765117582089    0.05460299721279
H           0.35132283545195   -2.20592515090591    0.07068518187850
O          -0.52948117088843   -0.05959062939097   -1.99546527080741
H           0.04508666907804    1.13556474619294   -1.29298251028835
H           0.17715350637293   -0.72047158262282   -1.83953224687547
H          -1.32057537733434   -0.38654013459704   -1.52940554682153
N           2.76692956724442    0.21694037306123    0.11919419008992
H           2.04616988059641   -0.99880896847864   -0.76860775945686
H           2.78070947569072    1.07085768581856   -0.42704917080676
H           2.06743736122712    0.36989379667091    0.83889754976550
H           3.66604111661954    0.13387705020757    0.57907031112884
