    26
        -50.45450935  Gyration_radius:  2.45188091076 Dipole_moment: 5.290
 S           1.03636682552213    1.75702177416730    0.44884104756784
O           0.77111261411517    3.14968570297900    0.41782459858416
O           2.32414181157775    1.45130591068827    1.24429108609137
O          -0.02248936155153    0.92703502368636    0.99407595521704
O           1.35506487271276    1.29742157752840   -0.98390525073080
O           0.69494867388701   -2.52269242166013    0.90840021726380
H           0.63418538681331   -3.46079051814636    1.09207987696949
O          -1.70711077436199   -0.65534848686516   -1.86687670705983
H          -2.10002144568675   -0.76959690144835   -2.73310402229418
O           1.61349864569682   -0.61239404916886    2.61180174461973
H           1.45689967558124   -1.36506394624298    2.00652943357984
H           2.16973050472907    0.62682062950397    1.79884137235063
H           0.74150942595556   -0.24356284260754    2.78744291633654
O          -1.58612337679761   -1.26751276570662    0.83675104062227
H          -1.86431746448029   -1.22659186131521   -0.09060737577885
H          -0.23388317503044   -2.15346854766574    0.94314982237765
H          -1.16565804085282   -0.40512695262710    1.00022066687621
O           0.93089958417587   -1.14897281018008   -1.44243678468296
H           1.24901406742645    0.28774558629159   -1.14822650846382
H           0.99113985670135   -1.68923126934814   -0.63346309073950
H          -0.02187412221913   -1.08346556499483   -1.66197906223587
N          -1.48609237117784    1.94441111407987   -1.31484723494013
H          -2.22413409361289    2.63591017228340   -1.37769357386014
H          -1.67211782723269    0.32994708575522   -1.69394880731299
H          -0.67796617597051    2.31455220928002   -1.80234453873072
H          -1.20672370593682    1.88196216169955   -0.34081682162500
