    26
        -50.45462559  Gyration_radius:  2.43337121379 Dipole_moment: 7.021
 S          -1.26204288212325    0.68412082843891    1.32266865280947
O          -0.32329145309535    1.89743420310369    0.95623512891285
O          -0.97347303401463    0.45863842301787    2.75864254245989
O          -2.62732006981137    1.03942790930331    1.05122112125851
O          -0.78411615749666   -0.44322919371494    0.54193541320068
O          -0.62876955065703   -0.00049040558843   -2.70470929839639
H          -0.82654238473783    0.44639064126049   -3.52914088425391
O           2.31190047555914   -1.02894070115929    0.11913133111961
H           3.08864095287527   -1.58378822058107    0.03774515270037
O           0.31115773608004   -2.12353445505064   -1.13511569118810
H           0.13298414747818   -1.61245710388959   -1.93731572940142
H           1.57214661518163   -1.51467053629691   -0.35526971002538
H          -0.26656297152994   -1.70316689168368   -0.46940870383127
O          -2.91906133679947    0.05641176676715   -1.38459722949092
H          -2.85532978746533    0.51284463229293   -0.51584446364339
H          -1.46936570246174    0.02431839962612   -2.17665348426100
H          -3.17494947348099   -0.84321915090394   -1.17065551862156
O           1.12926603340107    1.24511831346682   -1.07148073031763
H           0.50108877858112    0.82758989321478   -1.69873420926635
H           0.18986488372701    1.69662045893133    0.11595876133626
H           1.65961229059621    0.51586696345475   -0.71783111153047
N           1.48375924689304    0.27515326590804    2.39920994619026
H           0.32875425719056    0.28227784415687    2.63841107373046
H           1.69115053230802    1.23848415680492    2.14518283469871
H           2.03072390043664   -0.01474972579887    3.20321572854220
H           1.67977491336572   -0.33245131508150    1.57719905726769
