    26
        -50.45831566  Gyration_radius:  2.40237307343 Dipole_moment: 9.940
 S           0.28193571528862   -1.23504146237978   -1.71084465918639
O           0.02880988841924    0.13774613810473   -2.45333661171675
O           1.14138818983181   -0.91445369956705   -0.56194454289300
O          -1.07798680044775   -1.55499404167023   -1.21434914141164
O           0.82915678122592   -2.20391162846607   -2.59431450201332
O           0.41384351462760    2.44584006583682    0.03835620048462
H           0.43798437979668    3.32612097860459    0.41476752913412
O          -1.31287989491837   -0.44989808942322    2.36036470288385
H          -1.89388939413833   -0.70351850742125    3.07829011637720
O          -0.40645249107401   -2.55621543917732    1.12788429117342
H          -0.98001384261497   -1.30558804795752    1.95591882801627
H          -0.76723550684217   -2.37020607798886    0.23393873682072
H           0.54592526345669   -2.47992533130580    1.00997067128430
O           1.21073999649328    0.56907587578420    1.63952441006732
H           1.29312080384959   -0.06223956379643    0.89333971481415
H           0.80788849424225    1.82647214465583    0.71832153709374
H           0.44960640292393    0.26612915324017    2.15271771079713
O           2.28137906808484    1.22016389009287   -1.74546154074463
H           2.28131418335137    0.40346935776840   -1.21926108708154
H           0.89906772101175    0.60235259341276   -2.45839869718297
H           1.83098856749780    1.88084954508515   -1.19959775149021
N          -1.67270923228429    0.65660962063237   -0.09204105447330
H          -1.44317144539152   -0.25707670657138   -0.65325555343656
H          -0.92568966218752    1.36414887127122   -0.24612689296726
H          -2.57323883415916    1.01982021878816   -0.38665187730542
H          -1.67988184604326    0.37427015244882    0.91218947295296
