    26
        -50.46095759  Gyration_radius:  2.41787459631 Dipole_moment: 4.511
 S          -1.49773701042761    0.11679942743511    0.85086364215867
O          -1.75545234700025    0.79098312384135    2.11935495554190
O          -2.64451025948740   -0.33375751447315    0.11985087649647
O          -0.77543329037934    1.24500488861021   -0.02277270579360
O          -0.48474950308507   -0.92874613534522    1.02160056674475
O           1.90741044480287   -0.02776696730623    1.53549086265465
H           1.07918320254197   -0.55110750950185    1.42089095452041
O           0.56801461591827   -1.19003183852874   -2.58017286196908
H           0.71363823476576   -1.65376183159649   -3.40583243735359
O          -1.65859136165586    0.38962600625133   -2.24768615596669
H          -2.27604328751768   -0.11081676263025   -1.68660748880836
H          -1.12641344709764    1.06851280457383   -0.95085692489349
H          -0.92598587744806   -0.21016385093807   -2.48906656340471
O          -0.24089066035090   -2.86262671008951   -0.71676078031997
H          -0.45985986516898   -2.17482068867944   -0.04410717780007
H           0.30065888046759   -1.87194009603324   -1.91364072838112
H           0.34007962412374   -3.48260571139868   -0.27231555025022
O           1.81801969341036    0.78049395509147   -1.00570917213588
H           1.59818205727687    0.08426594882742   -1.64297052444132
H           0.96508506068888    1.17221410413622   -0.77064292283169
H           2.14472779050073    0.22958082532643    0.61578082770544
N           0.49685956842466    1.93435109298008    2.43191656830126
H           1.20219578479901    1.15454128352211    2.11297305199497
H          -0.49676473667972    1.46950609434842    2.36953786109411
H           0.68861387096830    2.25347385512839    3.37618763980285
H           0.51976280765841    2.70879220632491    1.77469419731303
