    26
        -50.45556809  Gyration_radius:  2.43273584835 Dipole_moment: 7.580
 S          -1.11824778940093    1.55657139261975    0.07049131677891
O          -1.10293199004787    2.93702734470562   -0.66844892824493
O          -1.63411625483575    1.80123444159974    1.42349596272497
O          -1.95492312478039    0.64430147945286   -0.68492955106599
O           0.26609224525697    1.11336165394300    0.17214941945632
O           0.44893336021131   -1.85834004129615    1.70670347632678
H           0.83293310682187   -2.63654911240747    2.11342162810194
O           0.94913987155534   -1.14966496778378   -2.40094196039291
H           0.87359342165993   -1.62437390330179   -3.22963700783409
O          -1.03228793214062   -1.83841804390751   -0.77444870860178
H           0.18498670633487   -1.44546504053828   -1.84295374542484
H          -0.69773621458243   -1.97215133388607    0.12103716647468
H          -1.48957254230447   -0.97222432080556   -0.75204413750484
O           2.10336318907607   -0.75731179526408    0.05977593685743
H           2.00931235747418   -1.07731963389790   -0.85096981081351
H           1.55172490241181    0.05194872892295    0.05548947220942
H           1.13283542884682   -1.51038524353788    1.04830798439745
O          -0.37745556070941    1.36672998831860   -2.72757741077749
H          -1.14463939063694    0.95254896331768   -2.30434582209987
H          -0.73961215764432    2.69701011884608   -1.54187515183586
H           0.32827779575081    0.70556480192090   -2.64474337065740
N           0.13214851218706    0.59237423354874    2.77184653804410
H           0.14345368819819   -0.41087166315755    2.45520317095219
H          -0.71313868425333    1.11613167587420    2.26012501794420
H           0.08547640126737    0.68039933443735    3.78216301204689
H           0.96239066427419    1.03787095228251    2.38270551294221
