    26
        -50.45556812  Gyration_radius:  2.43274734587 Dipole_moment: 7.581
 S          -0.26638071549601    1.79656152719098    0.61626277101235
O          -0.85395302800992    1.86408241123170   -0.70778516222108
O           0.99751302590237    2.53870693060272    0.70775538355599
O          -1.25901290802159    2.45953446761866    1.62978777585499
O          -0.04010322173058    0.43174311215863    1.07372550596792
O          -2.10269950063073   -1.74641268116442   -0.71908486341888
H          -2.82468774824501   -2.06432278264324   -1.26261550943247
O           2.04814188318965   -1.17847939459475   -0.99189646613019
H           2.60963123028441   -1.87386128722201   -1.33780570730605
O          -2.95109284725815    0.70514579773308    0.49292871586034
H          -2.05801377799351    1.90950035811780    1.52256205889716
H          -2.47768445154691    1.15608638108947   -0.22246576522125
H          -2.72107324972837   -0.23100319810190    0.38001898940648
O           0.26705985355376   -2.13362311253123    0.61338819837694
H           0.08918348221629   -1.22943479105298    0.94513459688085
H          -0.56627224176966   -2.36029603378888    0.17194612472418
H           1.35469428537510   -1.63051007361041   -0.41124212023271
O          -0.43155031304897   -0.29545878244755   -2.18455223854390
H           0.48219330168547   -0.52203869784104   -1.97140948012162
H          -1.52030908949200   -1.21306714366779   -1.31841265962920
H          -0.59153758978027    0.56733412547588   -1.74876115038696
N           2.60621642772913    0.60129450061461    0.94755215167645
H           3.57828662372697    0.82589323760017    1.13541621400954
H           2.49142753920968   -0.01456058823336    0.10228030133408
H           2.16200909216850    0.12128173129737    1.72951304996717
H           1.97801394771139    1.51590399617081    0.80775927511800
