    26
        -50.45556819  Gyration_radius:  2.43276931665 Dipole_moment: 7.579
 S           1.45888972008776    1.24294451328963    0.07592514916012
O           2.54131733573788    1.70929803013624   -0.95495935732662
O           1.99883326227742    0.12909114401563    0.83143759495186
O           1.15046668048117    2.40026449449936    0.92563685180947
O           0.26768888191461    0.89364104813613   -0.68715207948647
O          -2.17255076958876   -0.16661371846336    1.35017555570043
H          -3.03712923979611   -0.46618710697207    1.63520567484829
O           0.17644117456801   -2.56627482508978   -1.17108028606603
H           0.46776948705304   -3.47665507809950   -1.23580169301951
O           0.23042171334028   -1.77220748594430    1.36136068368206
H           0.22194503955009   -2.32998282315655   -0.20941181195318
H           0.94223969512559   -1.10478447483710    1.27347882606192
H          -0.56574497725059   -1.26816920926920    1.57052994120462
O           2.46644790685656   -0.90091433187519   -1.59814867356083
H           2.53255806419754   -0.84242681224918   -0.63301679802356
H           1.62958408992868   -1.36735900158887   -1.75345767694628
H           2.68031793264490    0.90148983385782   -1.48465344200688
O          -1.79732656435468   -0.65658562229741   -1.15607077122421
H          -1.03499623277382   -0.04168969906900   -1.15680346811623
H          -1.37320487664077   -1.51304452969366   -1.32103091034355
H          -2.08245222110671   -0.43009803740817    0.37822676900394
N          -1.37586227562737    2.34575623467013    0.80792823715588
H          -1.69167369534965    1.40999738761329    1.17050466691504
H          -0.26966363472475    2.42631120241296    0.95050442290820
H          -1.48691906708083    2.32648183155490   -0.20527437539120
H          -1.87739742947065    3.11771703582230    1.23594697006238
