    26
        -50.45556807  Gyration_radius:  2.43271031161 Dipole_moment: 7.581
 S          -0.96396120213109    1.39503744117399    0.89592784204547
O          -0.18182793531525    0.18762655155099    1.12737066749736
O          -2.11019029591910    1.40842972687472    1.96264474048104
O          -0.11575853842600    2.56333548759465    1.16476391635832
O          -1.56709570535724    1.43969029585100   -0.42210724264047
O          -1.21745817498415   -2.30572387844417   -1.08979541085968
H          -1.76127484074291   -2.79424350759300   -1.70899046180525
O           2.32061974549601   -0.04591363078723   -1.08649107703149
H           3.10770704026644   -0.37920327440777   -1.51998736258315
O          -2.96363896694535   -0.66385127719641    0.47656135414144
H          -2.74015054588032    0.05608813601282   -0.13257554938417
H          -2.37143725403463   -1.38852513140447    0.21914947022482
H          -2.61477231939125    0.60604663727039    1.73010814178979
O           1.14105025190425   -1.90604547006284    0.25909371958132
H           0.61673165777532   -1.22549231992276    0.72930434316764
H           0.46210781580891   -2.37641995912989   -0.24932968580226
H           1.89315349928251   -0.83438583919413   -0.61979119406697
O          -0.33743000101821   -0.07064859092413   -2.21936524760514
H           0.59454328165720    0.06547685160052   -2.00808629483242
H          -0.92475222951633   -1.48703064077858   -1.56604212140066
H          -0.82527054444957    0.56252852548252   -1.65279224925632
N           2.15466861684166    1.44803952979983    1.14546109041225
H           1.20148283008477    2.03283989723284    1.13404160404637
H           2.95306725791136    2.01677926730629    1.40957428694242
H           1.97188896614219    0.70262586712175    1.81639942646944
H           2.27799758093902    0.99293928497842    0.20495330411541
