    26
        -50.45556819  Gyration_radius:  2.43278836654 Dipole_moment: 7.579
 S           0.05768362112678    1.44914918560904    1.25529017385761
O          -0.50203169934235    0.39056238864109    2.07329663557870
O           1.43387173711641    1.78753414149372    1.64017833407912
O           0.03290135240610    1.14578435595539   -0.16969437001554
O          -0.80455553271483    2.73967029050941    1.46271216603239
O          -2.37874220292902   -1.30652017796852   -0.78899523954790
H          -3.14415462460634   -1.87030915893917   -0.67015795076319
O           1.80841592837726   -1.62092574056144   -0.82047220949604
H           2.23745308460999   -2.31448277233535   -1.32386269978231
O          -2.77874173626548    1.03257927768162    0.81378464256091
H          -1.68884682694422    2.44267130549042    1.17587842577508
H          -2.71973882561109    0.45005314235031    0.03969186550201
H          -2.22874740838979    0.59801207934613    1.48305192287504
O          -0.46800019760149   -1.99527297789866    0.92014828527717
H          -0.47225834072541   -1.17595042090229    1.45734998647952
H          -1.70752054989296   -1.60943598771798   -0.12536400261308
H           0.38947737294623   -2.00384053941806    0.47701711512272
O          -0.12202214129493   -0.55542071895012   -2.16209289630481
H          -0.98062091975927   -0.97676110017206   -2.00096180195335
H          -0.13642076557968    0.19625799203656   -1.53435594296807
H           1.04265430523895   -1.28443322728365   -1.38845877545881
N           2.66679413503231    0.89078942336271   -0.37847228640158
H           3.66221631991296    1.08157003445342   -0.43708096158031
H           2.21435845939553    1.27975106763604    0.56733509627491
H           2.13829354617542    1.36442938628460   -1.11036132077990
H           2.44828190931834   -0.13546123870373   -0.45540417175336
