    26
        -50.45556815  Gyration_radius:  2.43276704056 Dipole_moment: 7.580
 S          -0.43660455532319    1.68834894458776    0.79848908033176
O           0.75738573874827    2.38967835109296    1.28743525997777
O          -0.70560270785992    1.96122845667692   -0.60014493889701
O          -0.29425883224592    0.26732087432204    1.08775195104850
O          -1.64856988782624    2.20733028922884    1.64326717905900
O          -1.84625633638252   -1.58860565019682   -1.43392574764027
H          -2.41855377862361   -1.81019295262891   -2.16958483340284
O           2.24475379258422   -1.04708570699618   -0.65875806405201
H           2.88461883219853   -1.69106309873217   -0.96592553610061
O          -2.99892517920763    0.66770471675997   -0.09984972528952
H          -2.39043546511037    1.69148744566983    1.27442408136485
H          -2.38297580249134    1.21306483399627   -0.61217628335661
H          -2.73018875820314   -0.24452654068667   -0.29394772231362
O           0.16269175283080   -2.20480344674043    0.33461984394731
H           1.44598324018723   -1.57053099538844   -0.32676664289972
H          -0.10489509681025   -1.35769911243513    0.74700371573508
H          -0.54240413039023   -2.35108561083005   -0.31506390373857
O           0.08699023394654    0.03997488914001   -2.24442155313067
H          -1.15276712241555   -0.98062319378827   -1.79749147025127
H          -0.18576077942604    0.83040302100139   -1.73383395447693
H           0.93202028731331   -0.22921242898360   -1.86342828772901
N           2.30612065691410    0.41409653353269    1.60001953571688
H           2.40140477130088   -0.06641555356852    0.66894024133738
H           1.70902020908022    1.34878919426940    1.45713083234809
H           1.70312196174904   -0.17067188705279    2.17768656491716
H           3.20408694545058    0.59308863774582    2.03855038749080
