    26
        -50.45556809  Gyration_radius:  2.4327105674 Dipole_moment: 7.580
 S          -1.26439694259073    1.36667769376635    0.45997726573808
O          -1.62153806648722    1.10817657160058   -0.92152773466049
O          -0.61948375791290    2.67400544739274    0.63768786821443
O          -2.57762453040933    1.38623294344415    1.31261850790730
O          -0.40227393818160    0.33984547730657    1.03051500900779
O          -0.72599008352161   -2.60457900642401   -0.82169054754954
H          -1.08912121529701   -3.26119685239984   -1.41729025266270
O           2.46772778610725    0.11667072912165   -0.68171082163159
H           3.35315049648700   -0.16448803664957   -0.91723419486363
O          -2.90386920357610   -1.00196119881559    0.12025575085440
H          -2.93587508406325    0.49197140461938    1.15630666626470
H          -2.65911426003934   -0.36587293699570   -0.56877076704200
H          -2.19527065527940   -1.66491135874021    0.09750615164797
O           1.28879231724274   -1.65176223362833    0.78277585661419
H           2.05744400112872   -0.63919117595826   -0.15012658154646
H           0.61316449101120   -0.98756088961492    1.03091014713901
H           0.77147833080117   -2.29232705937679    0.27012674393992
O           0.07792807532989   -0.47876731691479   -2.19301332286922
H           0.93447299253441   -0.17578113804338   -1.86705560736950
H          -0.44914938757939   -1.84039788947842   -1.38928029713798
H          -0.57396920471917    0.16011301218935   -1.83698112166672
N           1.73087011310141    1.91298071335423    1.18146377120692
H           0.73416156377280    2.34314374249829    0.91268928152820
H           2.07338739099363    1.33412493179086    0.37246989273329
H           2.39741352385193    2.62707244996569    1.45798720819871
H           1.51768525729726    1.26778195599016    1.94139112800243
