    26
        -50.45556811  Gyration_radius:  2.43274338386 Dipole_moment: 7.580
 S          -0.31891011358466    1.77877199241434    0.64238378805355
O          -1.19453131178880    1.73667323328726   -0.51282196605515
O           0.15584337632135    0.46270444488133    1.04956678974403
O           0.84194270610274    2.65396136566696    0.43494138805802
O          -1.12423936224528    2.36748002001874    1.84933319184044
O          -2.00218188015773   -1.98484083132155   -0.20050658717125
H          -2.78891880296440   -2.39600424436828   -0.56077007269140
O           1.88903291276958   -0.98792814813132   -1.42248210624190
H           2.43185679180359   -1.63118336894976   -1.88079554577110
O          -2.82297070020681    0.40434290554113    1.14733972682356
H          -2.52089497048399   -0.50532633474707    0.99468517035468
H          -1.86037259804265    1.73218304812253    1.93304631030154
H          -2.57714790702263    0.87742526359952    0.33801674090703
O           0.63608671705695   -2.07006663315644    0.55771833999407
H           1.40011838288399   -1.49050314113259   -0.69403394773248
H           0.43789866829770   -1.17878785649333    0.91205008119819
H          -0.24478360776370   -2.39977118997445    0.32109842464667
O          -0.87925200702476   -0.41701362453953   -2.02457831806404
H          -1.63388624452198   -1.41428511733251   -0.92272110946857
H          -1.03169526229087    0.43881012215841   -1.57270558494825
H           0.07846455194475   -0.53727548779036   -2.02414433832688
N           2.66902255030513    0.90818389450131    0.32030310225599
H           2.43555664507338    0.25437333167818   -0.47021687017454
H           3.62715411095322    1.24127258499981    0.27891876423071
H           1.92754091338452    1.74537752724960    0.31858209703722
H           2.46926646120902    0.41142624382003    1.18779253120117
