    26
        -50.45282979  Gyration_radius:  2.4618836321 Dipole_moment: 7.473
 S          -0.79857773464082    1.96381862806771    0.44782477617338
O          -2.15917240096984    2.31087534076709    0.72814508725567
O           0.15677215398758    3.03732810348164    0.24940630358106
O          -0.26379154523868    0.98954004752311    1.43731775038489
O          -0.77926338860920    1.16904151845597   -0.93341146269772
O          -1.52756789424709   -2.23009747166459   -0.37119276299570
H          -1.97731531946338   -2.98393347879681   -0.75482792632728
O           2.38049758175142   -0.99231469199317   -0.31501877644520
H           3.07653384193717   -1.64850264713689   -0.26630256478703
O          -3.07844640320331    0.09941883541264   -0.52641225478780
H          -2.73291838766418   -0.72431728362600   -0.14619672184059
H          -3.11961235786606    0.77876021445657    0.16672586835594
H          -1.68989345759152    0.76102128766159   -0.97580132851666
O           0.48562202115803   -1.58042938607120    1.36448452660301
H           1.68135230969955   -1.27373606405901    0.35256451050931
H           0.12888012959174   -0.69080041307839    1.55198500468559
H          -0.23262746095522   -2.02312758826899    0.88169839329572
O           0.21469493089172   -1.13874594444643   -2.07680850894934
H          -0.93661773909829   -1.87090521407251   -1.08006618103684
H          -0.09068382870872   -0.22672937681437   -1.96529888392798
H           1.07984655089393   -1.16604347233276   -1.63868667832059
N           2.10392022031037    1.48850303069341    0.76685359742745
H           2.41260393076579    0.71222915396183    0.15398082174143
H           2.83948332791439    1.80290055044746    1.38984472407271
H           1.61838807056864    2.28795653204471    0.27463237399441
H           1.20789282878518    1.14828981938752    1.28456029255341
