    26
        -50.45282969  Gyration_radius:  2.46192595414 Dipole_moment: 7.475
 S          -0.93080275580001    1.87251349995701    0.56943983134907
O          -0.19592323439529    1.47912494299157   -0.78893382730463
O          -2.24422589833395    2.33290570680605    0.23293604010885
O          -0.97420354160580    0.60148141428899    1.34231639758781
O          -0.01885121284393    2.80377972803829    1.20607970507886
O          -1.09991078435419   -1.79545561090804   -1.73448748385358
H          -1.28171358593204   -2.34373865783139   -2.49873597831789
O           2.20973818338141   -1.22094803164256    0.61471386787667
H           2.78635448070528   -1.96375119870274    0.79691800885922
O          -2.36694020867404    0.69755336466512   -1.91680554983680
H          -0.95110050460050    1.23877521376772   -1.39675394588093
H          -2.25951445720981   -0.23975095880800   -1.68765809642687
H          -2.76528137821234    1.16662370717708   -1.16521177969985
O          -0.27509354951469   -1.94049324483602    0.87051598155733
H           1.26880008334267   -1.56046972005222    0.72870200918318
H          -0.68437048979867   -1.08913911360723    1.11851012570371
H          -0.63806827669896   -2.12579810603792   -0.01203037669531
O           1.26320762004170   -0.56624920333352   -1.93282020351577
H           0.93686653711637    0.31887282857026   -1.71463485150968
H           1.77867864708597   -0.83877363935640   -1.15743028524383
H          -0.23088016269800   -1.35462197627670   -1.91123434101759
N           1.39611087043442    0.89774982487214    2.11491644957825
H           1.98282001266362    0.27411672911111    1.53151173552264
H           1.22906106030743    1.86288468117940    1.71870678201063
H           0.36353010787875    0.57240651318654    1.99007052510599
H           1.70171242771476    0.92040130677990    3.08139927978053
