    26
        -50.45462547  Gyration_radius:  2.43334627389 Dipole_moment: 7.029
 S           0.38763441039925    1.76438168870976    0.73826497291293
O           1.45822250372738    1.88817923951137    1.75517898381735
O           0.01832151563387    3.01010519581399    0.12520739298582
O           0.73127513851847    0.72288906062078   -0.21368350577466
O          -0.83182156391112    1.20889819050758    1.57048331009772
O          -1.68081936207546   -0.29219186635984   -2.19297507228440
H          -2.53610616632341   -0.22874162054211   -2.62071919727661
O           0.72667903197574   -2.35782036217344    0.56630909924726
H           1.05472763978716   -3.25786939389411    0.55642164068555
O          -1.71075700703117   -0.93194565246299    0.43384838272326
H          -0.95677507228634   -1.53307187255791    0.52482461577107
H          -1.24509357690186    0.42464252015368    1.09744000791732
H          -1.74884791350948   -0.70735924114577   -0.52034236947933
O           0.89399205406638   -1.33305758318709   -1.82029494555126
H           0.84381921044498   -2.00891932740001   -0.36793836062684
H           0.00176183151558   -1.25883659151639   -2.18761489490476
H           1.02761357894510   -0.47066837749689   -1.38197401334335
O          -0.74705138962156    2.18027957609169   -2.26432633543266
H          -1.31377955676892    0.63052702309965   -2.18660287347753
H          -0.55342647394191    2.54715491351044   -1.37265164204846
H           0.09881638928229    2.17755576520371   -2.71726686176179
N           1.22948252814148   -0.47383322712532    2.51068213759649
H           1.15922428522694   -1.10689291015102    1.68734819496028
H           1.44271652769137    0.63159868357291    2.16156836677101
H           0.31609546381539   -0.42187456346461    2.95639379295676
H           1.93409596319991   -0.80312924731287    3.16241918352039
