    26
        -50.45282965  Gyration_radius:  2.46190263089 Dipole_moment: 7.475
 S          -0.76909932538751    1.92256005792242    0.63899745445723
O          -0.66449632292651    1.31070796287229   -0.82887544408716
O          -2.13626566064479    2.28657939134141    0.85943831282331
O          -0.34562857686479    0.80826567993107    1.52999549294854
O           0.23198646273123    2.97212254422597    0.65486533834614
O          -1.56310397121861   -2.09896424866713   -0.77191599469449
H          -2.00457781124933   -2.77837751116431   -1.28302702912188
O           2.36502046092346   -1.04273502049923   -0.26185167664728
H           3.03383193123165   -1.72826266266954   -0.24734936608546
O          -3.02155341277295    0.29438011451317   -0.73905832941731
H          -1.58121793900781    0.94965536942823   -0.99245791570500
H          -2.73386783171698   -0.58477732436841   -0.44439374191102
H          -3.09619140707947    0.88101064049647    0.03166035519435
O           0.32470034037890   -1.76087762853088    1.17975687324018
H          -0.36651068439122   -2.10779145514848    0.59082205685078
H           1.60629828834845   -1.37773260736045    0.30898944957558
H          -0.01720253706164   -0.88827848416763    1.45446987682288
O           0.34330617110946   -0.87247466571625   -2.18518520867698
H          -0.90643654297262   -1.67743739994788   -1.38165840164927
H           0.05915066611746    0.02988324140278   -1.97903007927101
H           1.16932228923437   -0.99159184317476   -1.69052683753237
N           2.08231120102498    1.28950869752711    1.10935496947667
H           2.77485151992692    1.49017359786117    1.82219984330257
H           1.13639569479124    0.92448975787907    1.50884795274581
H           1.66495842123762    2.16496413551604    0.69016396909299
H           2.41401856623895    0.58499966049832    0.42576809992289
