    26
        -50.44582852  Gyration_radius:  2.49698446442 Dipole_moment: 4.790
 S          -0.37634149202177    1.82760119676121   -0.10572331337022
O          -1.13647047665524    0.79125487193954   -0.77532745542842
O          -0.84082214606496    2.11925668791068    1.22169121640678
O           1.07238318682278    1.45712889212869   -0.10779177888715
O          -0.46433493056919    3.13552672030104   -0.95216556691665
O          -0.43594203956832   -1.78989068991615    1.80372516061459
H          -0.37837719214333   -2.07712320028593    2.71628402928812
O           2.07130922439454   -1.94537067696000   -1.09147668765401
H           2.29266638138665   -2.87779089632148   -1.07973977306092
O           1.24184970850300    2.06366834034176   -2.67957192626228
H           2.04057011477383    2.55909591127431   -2.87372769662915
H           1.38338335804115    1.63476078862484   -1.81490523967944
H          -0.01664671742291    2.89187520537519   -1.78545484502930
O           1.70404568655726   -0.60948674116490    1.04131025233671
H           1.43050625594267    0.35107666364300    0.59751024065686
H           0.83916221086701   -1.04726355376034    1.37821245398440
H           1.99220268661215   -1.15984387272952    0.22305852597210
O          -0.52090565781369   -1.75722559836752   -1.09616953052762
H          -0.73340368067195   -2.05772820516651   -0.20545193763094
H          -0.77442931835229   -0.80749818096590   -1.11312930663533
H           1.09326863776531   -1.88516190823537   -1.28781852310157
N          -2.39736328783375   -0.13661943454207    1.62488697315668
H          -2.78836374559975   -0.22199963098030    0.69362741185253
H          -1.89807338574945    0.75853566433314    1.62398616025078
H          -3.16037124939989   -0.07731575468201    2.28779251263555
H          -1.23950213179938   -1.13946258855661    1.75636864365695
