    26
        -50.47350526  Gyration_radius:  2.40655710191 Dipole_moment: 5.131
 S          -0.30330929640980    1.62144208789488    0.72987520308096
O          -0.50454730216522    1.52047802175833   -0.71255686298733
O          -1.43032753109461    2.51983241467446    1.31390950829932
O          -0.44520001630964    0.29529354671807    1.35082193287733
O           0.97372084140838    2.21354601035266    1.07061540155387
O           0.05822392681741   -2.28897201867026   -1.07474133662143
H          -0.18871750993782   -2.98050072961831   -1.69036890016100
O           1.49121407745593   -1.53647512555563    1.24385615723313
H           0.77308406360802   -0.91305291954471    1.48210402283234
O          -3.09840877456657    1.25095535888578   -0.29132601319560
H          -2.23971116124054    2.17687185075269    0.87355661072007
H          -2.29360905640421    1.38643025353244   -0.82153150695275
H          -3.12913146215648    0.29635981275347   -0.13717286901904
O          -2.08602153187612   -1.34416840860536    0.26248031785277
H          -2.39186755039245   -1.91427238473468    0.97069088126194
H          -1.47791443236407   -0.68010899109559    0.69527035741022
H          -0.77719862352049   -1.95386191052556   -0.67652917040176
O           1.24327929403198    0.03968246624755   -2.02375700067724
H           0.55757509588396    0.66884146097084   -1.70843439070568
H           1.14561866968599   -2.02781108390162    0.48388344263641
H           0.87660898781743   -0.83986090654882   -1.82392200495515
N           2.69387811177937    0.50444615714735    0.09737853213476
H           2.45355638296937   -0.36885070877225    0.64607479083302
H           2.29044989293058    0.35036295697755   -0.88081382054121
H           2.12325717036961    1.28936059173979    0.52699932331650
H           3.68549775369285    0.71403221724930    0.09363738409172
