    26
        -50.44582853  Gyration_radius:  2.49698786477 Dipole_moment: 4.792
 S          -0.28103136762118    1.16917890345945    1.43059207525639
O           0.87321125034993    0.92795237847806    2.25054159734626
O           0.03937868343587    1.58569905349611    0.08001737636823
O          -1.17392954487050   -0.02921004630585    1.37930939002677
O          -1.13546868209947    2.28608390700055    2.10679889186548
O          -1.66514972483510   -1.79008578532238   -1.81322199981586
H          -1.57105677688198   -2.38452205111706   -2.55909014218010
O           1.99156971411430   -1.47771698749554   -0.70672359741786
H           2.65294508937146   -2.13615850699896   -0.48852508266555
O          -3.21169944288566    1.49758705160126    0.65346226119123
H          -2.60433410081009    0.73943000720409    0.74249389819985
H          -4.01399117969057    1.26271159499481    1.12493743370835
H          -1.95102631667718    2.29855691836049    1.56935988026705
O          -0.28855990025454   -2.04490780515951    0.30998721543853
H          -0.65160278350679   -1.17028064617530    0.85553080462364
H          -0.90722098610309   -2.06933697459972   -0.50987999197658
H           0.64277237975781   -1.81293610131049   -0.05321876166313
O           0.04738988721602    0.13907138761964   -2.12983940141992
H          -1.15001540799577   -0.96376328469129   -2.03809939173485
H          -0.03296569955100    0.76773512962576   -1.37823792497950
H           0.88064806272715   -0.32240734251599   -1.98296760431869
N           2.78265538659501    0.77466015374999    0.24928024864261
H           2.34031965508198   -0.58131991718342   -0.32507141530190
H           2.42986016354991    1.50720185775478   -0.35599037707564
H           2.21496062504451    0.83498480459420    1.10055196775706
H           3.74234099653902    0.99179233093830    0.48800264985735
