    26
        -50.44582852  Gyration_radius:  2.49694752028 Dipole_moment: 4.792
 S           1.41854076786834   -0.06752331593586   -1.21483185009468
O           0.08864321995314   -0.50847767959470   -1.73731163838713
O           1.65295515771420    1.32342710810637   -1.48531308365555
O           1.52052451209270   -0.41436229677137    0.18855867381149
O           2.46771371388798   -0.90354536620923   -2.01193645011849
O          -2.51650423255161   -1.59530937350049    0.62291017655724
H          -3.25328203353980   -1.60991437919272    1.23573541548253
O          -1.15525424904385    1.93116915667705    1.25819453765486
H          -1.57734151965351    2.79160684875514    1.24757082292565
O          -1.90295684004703    0.47964806606706   -0.71369971154542
H          -1.01281408226642    0.09980673223456   -1.22133862210974
H          -2.27372901288589   -0.36099605002695   -0.25391127386512
H          -1.58331210829993    1.09183416870992    0.04541091952397
O          -0.42260075311658   -0.79302017123920    1.93714502663709
H           0.35046648277772   -0.77384181305962    1.33004906798342
H          -0.64159612109232    0.13240584286459    2.09374958341205
H          -1.68951145772466   -1.47661919567232    1.17133854933512
O           0.90212875790688   -3.02822062147553   -1.73070385185213
H           0.63601407280171   -3.48722538823218   -2.53052178289377
H           2.16493489641600   -1.82303993648876   -1.88158149384101
H           0.34088753422048   -2.23288597190056   -1.66636053892798
N           1.38409539140124    2.30157986567393    1.09265580495297
H           1.85446359307335    3.16740212315861    1.32558652854909
H           1.54564453916643    2.10141884747987    0.10049466916644
H           1.83895215830297    1.54593366087807    1.59217835950641
H          -0.13706240736557    2.10874914868923    1.20593217178904
