    26
        -50.44582849  Gyration_radius:  2.49683962592 Dipole_moment: 4.791
 S           0.59916580332718   -1.45293850012210    1.01176375524065
O          -0.12549796339814   -1.28708621325094    2.24072782726548
O           1.52841313565487   -2.69803100116207    1.15683751649676
O          -0.31840836190841   -1.77982059803152   -0.12279869847719
O           1.41259842556084   -0.30779651935858    0.65495599367659
O          -1.45070732734766    2.05795296727838    0.55458535856111
H          -2.25050354787196    2.43138968067082    0.92797606484231
O          -0.67790265657700    0.59984086188062   -2.90537435828925
H          -0.96749448734000    1.32035379629855   -3.46712014363237
O           1.70669848095880   -2.80068108857604   -1.48931387872985
H           0.87204949156561   -2.34897697221265   -1.26357208422141
H           1.88087687650919   -2.81879727298158    0.25391496215768
H           1.46505180041582   -3.62661481245068   -1.91428335557199
O           0.89282515421400    1.60223098865268   -1.09373822826968
H           1.20852878063885    0.87943747252655   -0.50681036310354
H           0.06653948336695    0.95642958744129   -2.34189700516797
H           0.26780026399745    2.10458320611654   -0.55910815231416
O          -1.93021743195050   -0.06476016068079   -0.79408166376958
H          -1.75305718169651    0.76322226908414   -0.21437970104812
H          -1.54308680359896    0.15733611607067   -1.71951469202909
H          -1.26431102996798   -0.85653444110222   -0.44177717257687
N           0.11834227140989    1.46003348751344    2.50220296107512
H          -0.03385866344067    0.44881230864097    2.57177596665066
H           0.05753250615431    1.85803287164614    3.43117584910825
H           1.07130048535129    1.56172626092634    2.17212328830828
H          -0.83267752402447    1.84065568517388    1.35572995381972
