    26
        -50.44582855  Gyration_radius:  2.49698625644 Dipole_moment: 4.790
 S          -0.27236355353678   -1.40443123023759    1.20201898776367
O           0.99738083614012   -1.45519101625845    0.41390271938171
O          -1.31721869892553   -2.15312176881952    0.56119118672587
O           0.06204575531406   -2.09673179298789    2.55988180018271
O          -0.62000364588513   -0.02158788246785    1.46125149269228
O          -1.25671221981566    0.78610165281682   -2.10952456219726
H          -1.64688333935262    0.58966383183224   -2.96260789568927
O           2.33405617176941    1.63429177113469   -1.07139899592211
H           2.51925818309715    2.36313440991523   -1.66558727801294
O           2.38549476725978   -0.81387559730412    2.57560553418348
H           2.09184515818237   -0.88872800294756    1.64833714908345
H           0.85437086056588   -1.61469310051681    2.86634960519074
H           3.18025789422934   -1.34601134230092    2.65509229972849
O           0.06523224682995    2.13216842810360    0.09428615502322
H           1.57154217570100    1.92204292181081   -0.49294605971340
H          -0.55089569099678    2.02503156366494   -0.63903553934622
H          -0.14553253390345    1.39932789346682    0.71479899738144
O           0.99017748747782   -0.40011593748583   -1.79452394342301
H           1.63476601666732    0.37528779713104   -1.59755615232068
H           0.96764701142426   -0.93786603864912   -0.84336053285022
H           0.06843178500914    0.03237956722945   -1.92239182248791
N          -2.88404298416007   -0.03543431262254   -0.29574957724984
H          -1.93595714178567    0.46023882942160   -1.40007493646617
H          -3.87187386561365   -0.20162021462606   -0.44304052157879
H          -2.44297551526890   -0.92019508810879   -0.02521339107605
H          -2.77804715041915    0.56993466880854    0.51029529099439
