    26
        -50.45987906  Gyration_radius:  2.52553023363 Dipole_moment: 7.499
 S          -0.28059890999128    1.43357092767276    0.45717695908783
O           1.18547234819424    1.55795379895074    0.37382570825763
O          -0.97708772295024    2.66652311612886    0.59348759739131
O          -0.75022663383167    0.58018471410939   -0.64904640124723
O          -0.53007640158370    0.59227825657588    1.77716356998193
O          -2.87129425628735   -1.49126892168365    1.66771939075910
H          -2.90037302829013   -1.30074117595714    2.60646669712724
O           2.74679908542493   -0.84589813454908   -2.25485567128875
H           3.59161765703540   -0.61232196549082   -2.64209594005254
O          -3.17408089197730    0.91807572341652    0.44444681693631
H          -2.90307532303887    1.74673870782312    0.85501461835471
H          -2.49008636878193    0.76675203629993   -0.22590299892917
H          -3.12102051838173   -0.65448234978352    1.22028449068125
O          -0.48774686250301   -1.75872472736374    0.50831752090541
H          -0.68632917991935   -1.10478072918014   -0.19268607162628
H          -0.51449803486531   -0.35283048099045    1.52137888554150
H          -1.36310192601277   -1.98446756152661    0.88984833739132
O           1.19502455094584    1.27644137851425   -2.34573649892643
H           0.32694895863443    0.96823633562024   -2.03087195748112
H           1.52253285056873    1.78906841951078   -1.59432983995204
H           2.13595820714463   -0.08312296583254   -2.44172611640726
N           2.08552644541603   -0.84341284111503    0.30884372980296
H           2.80349004948215   -1.05003797749801    0.99522904863087
H           2.44281494417968   -0.96863738164456   -0.67942305811475
H           1.25545206947299   -1.44106484205913    0.45117456078894
H           1.75795889188355    0.19596863009619    0.38629661239782
