    26
        -50.45462551  Gyration_radius:  2.43343768457 Dipole_moment: 7.025
 S          -0.49151252074180    1.06929323804488    1.55562347385478
O          -0.79753924766776    1.97220508605933    0.29958164843120
O          -1.69320756816629    0.89889996276904    2.32432691882884
O           0.05147842410576   -0.17291086658932    1.03508044840032
O           0.57085947934442    1.82496725744324    2.26043480007391
O          -1.81040610962151   -1.77117871654896   -1.14198604752993
H          -2.62576947591354   -1.96679491283573   -1.60622315629584
O           2.09663215272442   -0.24034779142258   -1.39741214078595
H           2.85985856071005   -0.55545742560305   -1.88332745663171
O          -2.57619565783099   -1.39846634642169    1.36113008266372
H          -2.09844060714615   -2.00943548447379    1.92595420314805
H          -2.34825209800722   -0.50627272947423    1.70646657824038
H          -2.07097567096306   -1.60556218035830   -0.19810859326195
O           0.83130398181673   -2.25463214075494   -0.34124604207513
H           0.57597749211607   -1.64707243290942    0.37939507524222
H           0.00296614417934   -2.38621811928485   -0.82394506712834
H           1.67001299335546   -1.05371415619206   -0.99165113822518
O          -0.58500997026934    0.53781929135597   -1.83142195656388
H           0.35457304305520    0.30263165933172   -1.82405420483400
H          -1.06143229897266   -0.29276821681970   -1.61765596263232
H          -0.80492748637943    1.41354018656551   -0.53584329612280
N           2.02737758897797    1.96934789084697    0.24598550850198
H           2.06596902260001    1.04592218487167   -0.23259699742813
H           2.96036728017235    2.33819698412841    0.39786585036778
H           1.47234171770964    2.60470768326959   -0.32293212171584
H           1.42395086081028    1.88330011499996    1.25655959347997
