    26
        -50.45987861  Gyration_radius:  2.52536464333 Dipole_moment: 7.511
 S          -0.64363275461672    0.86297231656116   -1.08703152780622
O           0.41282257735989    1.81700057951771   -0.70564503266538
O          -1.32294921090334    1.17736994135473   -2.29678949647222
O          -0.09599467545649   -0.50410324947028   -1.02597156403554
O          -1.69844297480618    0.95034039138536    0.09292084467695
O          -3.05395402476022   -1.74332076027737    0.94183229983039
H          -3.75941972944205   -1.13967718625193    1.17916313016139
O           3.58530889503667    0.05196771417917    0.69274810861330
H           4.42809640833614    0.50360365550301    0.63085480833308
O          -2.57840249494090   -1.26541701580145   -1.69260654799445
H          -2.97216680058725   -1.68339574207330   -0.03407719100980
H          -2.75741704484324   -0.41324613624057   -2.10539977334911
H          -1.61207845164667   -1.27733306883602   -1.61470933474994
O          -0.55638109479761   -1.00798769658997    1.50631506156050
H          -0.24165776229310   -1.14975913280181    0.59011107573393
H          -1.42295127049455    0.30051972216872    0.77170173895958
H          -1.41467393720725   -1.48186851762049    1.54780677847842
O           2.40511129945300    0.19981148345165   -1.65391134722199
H           2.04830533152835    1.09803873306502   -1.63801210749407
H           3.23576701013056   -0.01129553481140   -0.23648296758290
H           1.60564263278328   -0.34896018730464   -1.56715102828137
N           1.28318893072487    1.02005411796928    1.57198146356706
H           0.91387067445887    1.43057781051451    0.62918805863882
H           0.65971329148911    0.24024156033720    1.83560794148097
H           2.25153995452913    0.64294009154186    1.37192918337391
H           1.30075523099323    1.73092614055563    2.29562744527390
