    26
        -50.45201969  Gyration_radius:  2.50205671808 Dipole_moment: 2.549
 S           0.73112293740376   -0.40910806264476    1.13731837154737
O           1.86162685654562   -1.01635595777086    2.01059349340453
O          -0.14150245665153   -1.53527352449941    0.78472415446732
O           0.01890865756400    0.59960141313901    1.90501747106760
O           1.33690653092382    0.16452536312033   -0.06247269089565
O          -1.19225948732534   -2.81693331271652   -1.89727858476772
H          -0.64804838238186   -3.34144470653032   -1.30356810885630
O          -2.10394013705022    0.97048971239911   -1.46181187267277
H          -2.88587981647947    1.51184971497679   -1.58037978507013
O          -2.34184829497757   -1.29892791821054   -0.26873521876623
H          -1.45468763120552   -1.34447604560823    0.33019024143494
H          -2.31957475803684   -0.39095359103207   -0.72718466416659
H          -2.05200341870460   -1.99541048746635   -1.00031081938910
O           0.17849615988117   -0.63123661129820   -2.32700341825173
H          -0.49242254698932    0.05623322312250   -2.40366884440170
H           0.70225289876170   -0.41150003339651   -1.52616962553027
H          -0.60333104810445   -2.07485258408530   -2.20785354236165
O          -0.32992210658181    2.24307957373036   -0.08519312171703
H          -0.39860804458700    1.83047396957864    0.80331082165723
H           0.47533571646870    1.81965193163224   -0.42463535259881
H          -1.45060717641143    1.52570173713001   -0.93198026729426
N           2.72589319773726    1.43410169890437    2.29549106444806
H           2.96877239019444    1.67087107536612    1.34186381785049
H           2.39573992954993   -0.21390348700284    2.25010351495836
H           3.27752058121195    2.00446320842220    2.92360453728754
H           1.74205943927092    1.64933372074243    2.42602842866537
