    26
        -50.45201955  Gyration_radius:  2.50175855636 Dipole_moment: 2.540
 S          -1.37517748931001   -0.26713159484400   -0.19484126613618
O          -0.70930455898442   -0.61510585487651   -1.45560097971329
O          -0.60002192756841   -0.75259513556268    0.94487068775470
O          -1.62191708035356    1.16239036251745   -0.09704375791712
O          -2.73112837046473   -1.02243334067818   -0.21862853532042
O           2.36712080812513    1.37053975723785   -0.12398366552910
H           2.89078249187742    2.17248644920141   -0.15948561733487
O           2.05797107794347   -1.90081575718766   -2.26043442636560
H           1.24298003658676   -2.35268731517733   -2.49566206398699
O           1.88675797137123   -1.47517787675730    0.31455805524824
H           0.94712512348986   -1.33182041105338    0.56043698747934
H           2.08095621317974   -1.90030030749702   -1.26371147604710
H           2.32796060168452   -0.62800825665445    0.44204154031212
O           0.37741736566806    1.66653934203347    1.49334604245043
H          -0.38489095345490    1.79205966522684    0.88678484297389
H           0.24843232597128    0.74373000421631    1.76594880135356
H           1.61995632494740    1.54679057662948    0.52899945062242
O           1.30854194773086    0.49007774452218   -2.30019142988452
H           1.75571675362259   -0.45173729807487   -2.42984754225572
H           0.34709739790898    0.14757327779479   -1.97322517812560
H           1.75143779532494    0.89583601724337   -1.47919954930929
N          -3.24292261528204    0.18001392515039    2.04513608124845
H          -4.01809260915979    0.46626260510350    2.62944307238857
H          -3.15137293085169   -0.72633529374866    0.63110311527510
H          -2.86025441789993    0.99482037590944    1.57514246277711
H          -2.51517128210107   -0.20497167065446    2.63404435801599
