    26
        -50.45462555  Gyration_radius:  2.43332798456 Dipole_moment: 7.027
 S          -0.69242700392053    1.17096688374215    1.39921144147272
O           0.16749158382050    2.27264861702581    1.89161675259648
O          -1.78522643113701    0.84818276294099    2.27415695610418
O          -1.25966155349070    1.74079186821849    0.04214571048442
O           0.12886589830330    0.02772393131491    1.04224515169202
O          -1.34031827691291   -2.32911723025454   -0.70494774318584
H          -2.09349904124782   -2.79738498843863   -1.06821322660541
O           2.04331776439166    0.03877992812118   -1.49455293124251
H           2.84515830594029   -0.16047901977069   -1.97951953861962
O          -2.09209558343747   -1.72520470513659    1.75684587202096
H          -1.60327938061493   -2.07026480543272    0.21701154772470
H          -1.45662474343330   -2.09494705552252    2.37336995826579
H          -2.08489706125093   -0.75862780838678    1.93809131608902
O          -0.76189083970941    0.05414119206997   -1.84320099029334
H          -1.00607486491796   -0.81758628764705   -1.46524392111469
H          -1.15412844642953    1.06057009610499   -0.68987848053617
H           0.20630033500944    0.05911237341772   -1.86922647161011
O           1.36245729254166   -2.00820234002866   -0.03851157222945
H           0.57859368743904   -2.41880382304994   -0.43021662153099
H           1.84926298703044   -0.77092640403749   -0.93327672060007
H           0.98603088123011   -1.36542713502295    0.59301381956826
N           1.46768637180636    2.41504371855548   -0.22765512065976
H           2.27862505854690    3.02481186847602   -0.21242408121819
H           1.72581143615681    1.46051158945907   -0.55294103416556
H           0.94388625817804    2.36158465824483    0.82698298891256
H           0.74663536610641    2.78210208503702   -0.84488304132064
