    26
        -50.46728907  Gyration_radius:  2.49339638224 Dipole_moment: 4.065
 S          -0.46924282160318    0.51325305602568    1.93384607479204
O           0.48451962848365    1.35175080398746    1.20132843536338
O          -0.11324295044910   -0.88664552673220    1.84775297664745
O          -0.31724401945839    0.91868317475532    3.46189329195180
O          -1.83537092161654    0.81713381084740    1.57731296899477
O          -1.36458278725407   -1.33800977769588   -1.49880433964223
H          -1.93198934272026   -1.62444709259712   -2.21561509379402
O           1.64628188644422    1.60145233809522   -2.48529431701004
H           1.81180475323492    2.54152530769397   -2.56815278893258
O          -2.55518500909280   -1.58827109328147    0.81971195933523
H          -1.85884921940411   -1.98498659018536    1.35561782776976
H          -2.52142635878682   -0.64308803400009    1.07841344642394
H          -1.88465207529426   -1.46906638719891   -0.65758869253999
O           0.99713765855898   -2.02375562015180   -0.29145496260703
H          -0.90132137433100    1.66801389395934    3.51602898076093
H           0.62502405044498   -1.78767720177280    0.58330223849770
H           0.24988952303284   -1.91653129379507   -0.90606837066061
O          -0.67838777466519    1.32398596268422   -1.30332523456014
H          -0.99389692255753    0.40866644620094   -1.41069645393502
H          -0.48494775381928    1.43673107732023   -0.35980466870301
H           0.70433497619973    1.52010481449149   -2.17346330139414
N           2.31389749042934    0.23379767554903   -0.30325053801806
H           2.22894267694784    0.74966474047807   -1.21693913605783
H           3.26843420015106    0.21198115709121    0.03585482186943
H           1.66999995625025    0.71766675084613    0.38611824575643
H           1.91007254081466   -0.75193237246828   -0.40672338009775
