    26
        -50.46728894  Gyration_radius:  2.49362560579 Dipole_moment: 4.058
 S          -0.52404966492946    1.93224278678379    0.46790160023363
O          -1.69670313850077    1.08770059364448    0.39231615586508
O          -0.95122554230961    3.21469640181418    1.30172016302082
O           0.54514844265899    1.29159713977129    1.23966360325051
O          -0.04702179787667    2.42680245077470   -0.80232935919117
O           2.59428757720852   -1.97941592921555    0.89745343691744
H           3.44385169382941   -1.71143703480236    1.25011674221387
O          -0.35957460340434   -1.10606231398324   -2.13140359977082
H          -0.22991680459545   -1.52034452572347   -2.98545970863702
O          -1.71664533601544    1.12253590204700   -2.34797334468559
H          -1.03391862122346    1.72045135378741   -1.97674964284859
H          -0.88425383213912   -0.27407149487217   -2.29817030746391
H          -2.34784149334119    1.03786139205475   -1.62415075514277
O          -1.62310766228625   -1.57219547917149    0.25438337562355
H          -1.20026259003750   -1.65178524377853   -0.61883056240161
H          -0.32220679256871    3.85804095742172    0.99175107885075
H          -1.85211841078585   -0.62240782390160    0.32514888834404
O           1.81915145592004   -0.10920906900939   -0.76997798092090
H           1.09238571020519   -0.44606201465601   -1.32427696535481
H           1.43410966768790    0.57631048131590   -0.20235813262793
H           2.39151666466898   -1.33664015358912    0.16479682579693
N           0.29535890840856   -1.20531542154585    1.99039728183812
H           1.20401194329071   -1.64422129131763    1.69100472299935
H           0.38085913059588   -0.16384717559049    1.81158410195735
H          -0.49220259679517   -1.52860746122147    1.34154883326075
H           0.08036769229628   -1.39661702706912    2.96189355887734
