    26
        -50.46728905  Gyration_radius:  2.49336720401 Dipole_moment: 4.065
 S          -0.73760342932624    1.91847893958403    0.02678268652688
O          -0.82016888682292    3.49588796837640    0.19243144959806
O           0.01843515702657    1.67605735802767   -1.18296740651208
O          -0.02220055841950    1.42953824957254    1.20931393193236
O          -2.10378304155327    1.45132363095715   -0.00547299587617
O          -0.79723654355046   -1.82396054038771   -1.39109863797523
H          -1.20192486022517   -2.63628778202161   -1.69800655293162
O           1.27650168388108   -2.02170527950945    2.39371381668905
H           1.16418665227406   -1.95001300222342    3.34251283165089
O          -2.02921304026229    0.27778089773983   -2.34983307330438
H          -1.28784415041876    0.83079392973163   -2.62200128890194
H          -1.31638902578974   -1.07733731167377   -1.80161629645662
H          -2.29361180518232    0.67023627304192   -1.49110099866097
O          -0.94245994778723   -1.17357576524792    1.28253155859493
H           0.38016349165963   -1.83785749595336    2.00140507414704
H          -0.85954708738604   -0.20743256276320    1.28312489191544
H          -0.96479496885318   -1.44599300423087    0.34749414214588
O           1.56753077494589   -0.45462403056730   -1.58678607979161
H           1.07995365860115    0.39436785063265   -1.61559376577631
H          -1.60062592639825    3.58755985413237    0.72915498473344
H           0.86842260810227   -1.13201602462596   -1.58962935951458
N           2.15808201925557    0.00788348704941    0.91687882323778
H           1.35252326584005    0.67806485150835    1.07797226666248
H           2.07097513054210   -0.28057893274455   -0.11007071588819
H           3.04972798187702    0.45071009063747    1.10532611339661
H           1.99090085819812   -0.82730164906771    1.53553460037951
