    26
        -50.46728905  Gyration_radius:  2.49388176896 Dipole_moment: 4.083
 S           0.45921532320877    1.38707258132066   -1.44776524512661
O           0.69178967218217    0.04408402947082   -1.93368661086330
O           1.29496173063680    2.35358512809974   -2.39107301051029
O          -0.91040272649533    1.83680292853406   -1.53281828934008
O           1.01010963598537    1.56943826362947   -0.10124681639387
O          -1.93255685143100   -1.46873013345443    0.01345189060363
H          -2.76901960276888   -1.88494214131761    0.22540416485701
O           0.41736474726415   -0.07256043386347    3.35749151847600
H           0.55901733674816    0.66784429309964    3.94884918486939
O           0.69478563984939   -2.13030657178318   -0.39274943121516
H          -0.24394576506992   -2.11571770707700   -0.13541844559993
H           0.75957339501641   -1.46041362564787   -1.10439602278204
H           0.82559990166059    3.17395083294019   -2.28095651781886
O          -1.97470839731378   -0.40597620003936   -2.37894951295278
H          -1.12661518728982   -0.69401875612513   -2.73562646053282
H          -2.02791039069092   -1.09620419758626   -0.90713631962960
H          -1.79733078953105    0.51957759945297   -2.10832405822978
O          -1.14437620179830    0.76348343839668    1.42387978428192
H          -1.50435067786426   -0.00212223945425    0.94094094887366
H          -0.28890130050096    0.22218638060583    2.72059419429645
H          -0.54519698067984    1.21564295502828    0.80976620762814
N           1.94147805639829   -0.49285101129155    1.21789423371733
H           1.50203888760427   -1.29637443997808    0.66402626071507
H           1.47550469489961   -0.41368360242905    2.15851448735279
H           2.94593792394810   -0.59988826781374    1.29687426830393
H           1.68793792620471    0.38012090801602    0.67245959622904
