    26
        -50.45426029  Gyration_radius:  2.48264630735 Dipole_moment: 9.497
 S           0.10624333843779    1.75035433575381    1.20039384986871
O          -0.03449453097837    1.77614954665815   -0.25074951339165
O           1.30427344661348    0.90898908061233    1.51315437461793
O           0.11448816977941    3.00904234278133    1.85901046738186
O          -1.11262743164660    0.90958852709068    1.74884748795705
O          -0.43771158690187   -0.17807360978300   -2.53386430791450
H          -0.82499077537041   -0.63102851435698   -3.28405750130642
O           0.47620593186316   -2.61681663087384    0.70374394585218
H           0.62987775304737   -3.53891291505030    0.91146558799659
O          -1.59094656362995   -0.90305282115980   -0.09641709705149
H          -1.01848853608668   -1.65145883825402    0.12743116260423
H          -1.36911125810090    0.27824736690705    1.03174661774461
H          -1.28832221349270   -0.57054526452972   -0.95875340223056
O          -1.38091026385713    2.29012614098129   -2.39844270614934
H          -1.01398385681397    2.24468806294788   -1.48505130121388
H          -0.95776601435886    3.04769454308402   -2.80591400415728
H          -0.78589860035484    0.74924250776536   -2.55734148860308
O           0.46408706268434   -1.17091516935539    2.86843257017565
H          -0.42170559784695   -0.88229658653673    3.10811502874023
H           0.47626296879738   -2.12831649955094    1.57974018592232
H           0.88948950839441   -0.35931529116297    2.50264036949344
N           1.57133680033699   -0.47919849434321   -0.58393375201248
H           0.89249502405457   -0.14703244904045   -1.28683773025192
H           1.29839678185198   -1.42445080076195   -0.25613093622836
H           2.51247306449597   -0.47227830879748   -0.96143840519967
H           1.50132736908279    0.18956970897561    0.30421048735613
