    26
        -50.45489356  Gyration_radius:  2.43277728285 Dipole_moment: 9.430
 S          -0.14591516709276    1.16863084923790    1.84020396218563
O           1.16199167736778    1.43246113307540    1.17510403923367
O          -0.43019064105665    2.03446837069445    2.92720947579899
O          -1.22642782850862    1.47844405794423    0.71470463020132
O          -0.22626653544242   -0.26407086191873    2.09377999047284
O          -0.49363127629339   -2.57201600027427   -0.01293338160148
H          -0.37131432932710   -3.49605561675733    0.20810695986750
O           1.30264366561392    0.44421973021521   -2.37188457358946
H           1.75828476019777    0.61784453285440   -3.19604948941688
O          -1.18218575682506   -0.21092126577401   -1.34122018666093
H          -0.42255782682553   -0.00655164724684   -1.90723887256238
H          -1.09344583780887   -1.13999250336326   -1.09288675071665
H          -1.20203650679164    0.81063831221892   -0.00987312176403
O          -2.38136255313465   -1.51625297302128    1.46516254505606
H          -1.23604020799640   -2.25282227662465    0.57309857654211
H          -1.64803311781664   -1.00920864942178    1.89614325805942
H          -2.92984670537305   -0.85977066481776    1.02996471373539
O           0.77382235625240    2.65606004682874   -1.09779961515570
H          -0.16181575658314    2.87066482374158   -1.05069557471145
H           1.00530813378234    2.34771381278843   -0.18926317975475
H           1.14584364417407    1.33675939300724   -1.94535260097673
N           1.61323406295944   -0.79963363377963    0.05196933194964
H           1.65780300155567   -0.51927450451417   -0.94441608167294
H           0.81011999242294   -1.44898604132722    0.20745820753702
H           2.48022514694388   -1.23022620849252    0.35499237561384
H           1.44179360560622    0.12787779472684    0.62171536232922
