    26
        -50.45731626  Gyration_radius:  2.44449954435 Dipole_moment: 6.862
 S           0.44987454475603    0.16262464019652    1.94412535056467
O           1.44940417796547    1.15173073211550    2.28209904888066
O          -0.41161124004979   -0.14630587843674    3.20599207272305
O          -0.49374679199871    0.73293486570088    0.94861766431097
O           1.01951174891073   -1.08310322814255    1.46109585409088
O          -1.77185737769159   -1.95279512873848   -1.11192435768974
H          -2.43196084826084   -2.40807720972644   -1.63563954194758
O           1.36287018269517    0.97241981132592   -2.12203076269127
H           2.07640073611863    0.88648172958180   -2.75559518794377
O          -1.56605920235490    0.67357674734418   -1.50907142932130
H          -0.75029763344167    0.83736471979121   -1.99555623058948
H          -1.85059966035399   -0.99226482361247   -1.31880723872234
H          -1.32089771794075    0.72120653879720   -0.56623513293540
O          -1.42055741842032   -2.12431691267395    1.71617709814755
H          -0.45727755135799   -2.13864776506345    1.60263357768236
H          -1.02105723857468   -0.84201980869258    2.88586228780147
H          -1.76414527528344   -2.05154561879607    0.81226067667048
O           0.98895521757016   -1.39138290690112   -1.15315827500188
H           1.22489105161055    0.04560870519893   -1.74899147834286
H           1.11756335975664   -1.31998754297384   -0.18242952778162
H           0.08848340371568   -1.73996377795564   -1.25087939758964
N           1.12335506475753    2.45508834663644    0.07229495174397
H           1.42228863787445    2.00133134638659   -0.82671413055090
H           0.99965790880281    3.45817782861289   -0.00791833335149
H           0.23014415802043    1.91759392997129    0.36326463460333
H           1.70666772317390    2.17427068005338    0.89052780723975
