    26
        -50.45590455  Gyration_radius:  2.44287554933 Dipole_moment: 7.057
 S          -0.22177042604048    1.73164798754454    0.47567532562580
O           0.66852579349003    2.73606543012178    1.03257016067901
O          -1.50108702387446    2.18611615905647    0.00666148422847
O           0.59366964528892    1.14579678270611   -0.73768851882855
O          -0.34316208118935    0.58556225778130    1.41547737187954
O          -2.19627008068381   -1.64735695830745   -1.23385082715631
H          -2.97696882556739   -2.07374664419605   -1.58974931192437
O           2.82476262366258   -1.01220208628851   -0.14293961343647
H           3.28790844413191   -1.81586396745583    0.10004567734404
O          -2.91387743318839    0.04779345815113    0.61853463250253
H          -2.52565763352483   -1.02057481478481   -0.52663781506543
H          -2.28802589101209   -0.10011471542205    1.33838592438742
H          -2.63503268591646    0.92372927864269    0.27721622790829
O           0.26542896168904   -1.69308566507950    0.14590429816012
H          -0.01549966062952   -0.89231674635964    0.63306362172504
H          -0.48369521440384   -1.91355771331670   -0.42227813319711
H           1.87376710513870   -1.26073828944687   -0.21516506621651
O          -0.74466142819462    0.06277900985525   -2.70329598793959
H           0.01455818652914    0.84499543093275   -1.48470097878117
H          -0.06252210432808   -0.45953164000690   -3.13030742710026
H          -1.33330215367589   -0.56814262378230   -2.23394225279224
N           2.19880464357771    0.82986421373100    1.69591336848624
H           2.60934975836719    0.23843378708702    0.92783784939978
H           1.87880519975645    1.79154600405746    1.34685528872984
H           1.23305832653163    0.45428968906085    1.88971168590836
H           2.79289394407031    0.87861235571946    2.51670301546889
