    26
        -50.45334076  Gyration_radius:  2.59441016423 Dipole_moment: 3.805
 S          -0.42876122892585    0.75678146365740    1.20160496699932
O          -0.72111392759851    1.42446015839061   -0.14065965222379
O          -1.37902749542795   -0.31396605945485    1.41241262460848
O           0.94288663065222    0.34792817498043    1.29275663294700
O          -0.69931229183225    1.88546061246089    2.20429250507622
O           2.11340849960422    0.94984156673112   -2.76144881744415
H           2.64798744236215    0.62359994721384   -3.48665562416058
O           0.84961985720503   -2.34199520538250   -1.04164588666600
H           0.63018576509952   -3.18832682125652   -1.43405177739326
O           2.81519921188095   -0.38132204955144   -0.57246820333409
H           2.31133081980923    0.00468301134093    0.16188125885907
H           2.35460210246155   -1.20655943870729   -0.78148913063119
H           2.50673354851487    0.57711275392486   -1.93535174011824
O           0.30322888612293   -2.37868030946982    1.52964441878083
H          -0.45675659061163   -1.76519200985355    1.54767290576498
H           0.62703836118168   -2.41624671603245   -0.07543445378638
H           1.03132387249806   -1.86164096903787    1.88888182712067
O          -0.23141844786391   -0.06992008669241   -2.06639696688728
H          -0.54305543566616    0.79047580967292   -0.97645396289593
H           0.56028024621066    0.37974857356738   -2.45421696137877
H           0.10313461287808   -0.91781209445448   -1.70429513256851
N          -3.19760500241174    1.85955664371736    1.63512929542327
H          -3.08622813301939    0.86167563372282    1.47968638132811
H          -1.70395627488120    2.04928917103005    2.10377011323652
H          -3.35130272198994    2.30836400768967    0.74184748834654
H          -3.99842230619985    2.02268424194518    2.23098793098944
