    26
        -50.45262173  Gyration_radius:  2.52476838815 Dipole_moment: 4.450
 S          -0.60003374199804    0.91844139667888    0.98322269650972
O          -0.09836170124379    2.27133347569200    1.03955208018905
O          -2.00444546868695    0.87156161636936    1.67971230940435
O          -0.79142325150944    0.44204225378347   -0.38421441911889
O           0.23087771384244   -0.02927043249348    1.73225033944085
O          -1.73669634747820   -2.01139355840736   -0.61612177337245
H          -1.72598964151209   -1.04565414764611   -0.44138208139314
O           2.19429294458788   -1.74918567862144   -0.89776688410741
H           3.06875335846406   -2.10071341406913   -0.72419354308795
O          -2.45828919013500    3.40399853814927    1.07931529387278
H          -2.53064588083433    4.00834955618384    1.82160208007371
H          -1.50093831648055    3.24158081952069    0.94661397620077
H          -2.43297099624991    1.72992037748507    1.47708178272421
O           0.31218753309565   -2.30952793176834    0.78342787409581
H           0.27009284979581   -1.36909841399248    1.28004046917952
H          -0.59255235530969   -2.32360334328358    0.22077639793607
H           1.06596594812515   -2.19742453745991    0.11284289542242
O          -0.07676078832238   -1.23725483530371   -2.56622949248418
H          -0.27215661368324   -0.42700798986404   -2.07542223811808
H           0.80639705243738   -1.50720716444527   -2.28887731438076
H          -1.37152219101799   -2.06788659099070   -1.52347122526057
N           2.09310770765166    0.80487848021067   -0.32685143047073
H           2.23089447621694   -0.75319407172009   -0.71414310162990
H           1.12670263256445    1.00814073168999   -0.56743028463273
H           2.12556792164477    0.88441256036785    0.68397215537599
H           2.66794633599543    1.54376229392817   -0.71430658237955
