    26
        -50.44909146  Gyration_radius:  2.56480248014 Dipole_moment: 4.381
 S          -0.68905258678226    0.96759339017402    0.98605320273583
O          -0.03331316668929    1.49465472086369   -0.19265627264184
O          -1.57055263481496    2.09258182393848    1.61878881635442
O          -1.62994457064233   -0.09894357705759    0.63560027430667
O           0.26740788003028    0.52385546749199    1.99626132849168
O          -2.44061910414661   -1.33128642851991   -2.19995943733966
H          -3.06598303603098   -0.79121420927158   -1.70916509964744
O           1.31378247463347   -1.93994772273987   -1.27204935553843
H           1.88732891260884   -2.70678114793418   -1.23743284047167
O          -1.04461436910665   -2.27405099511290   -0.34589910632277
H          -1.67147687780260   -2.07143552138203   -1.16486366697950
H          -0.08685087985262   -2.18625109489657   -0.70296462290983
H          -1.23844228059964   -1.39256529133234    0.21273142785918
O           0.54484759724441    2.91513544315308    2.99494558529242
H          -0.92045136425704    2.66190549608004    2.07349692608075
H           0.41880214595861    2.90774911862877    3.94637470379449
H           0.67256231572636    1.98021909068648    2.72421505353051
O          -0.31727552000821    0.15482759449520   -2.45808681375277
H          -0.25550306472763    0.73661713215533   -1.66722100477181
H           0.41753931692728   -0.46416662386295   -2.38561692836992
H          -1.70182222497869   -0.71092195664286   -2.46189075254289
N           2.30809054317888   -0.04939011741833    0.17348798533489
H           1.75301284138079   -1.20961445852232   -0.69412339740966
H           2.15891439451540    0.79854569040897   -0.36350568481343
H           1.66686352483208    0.03135321835286    0.96584110405049
H           3.25674972340215   -0.03846902173808    0.52763856567593
