    26
        -50.47393290  Gyration_radius:  2.40350843689 Dipole_moment: 4.924
 S          -0.70874426882607   -1.02366498142438    1.11243630508728
O          -1.13518618591570   -1.32585568276359    2.57525453065869
O          -1.52134055959156    0.09107968663447    0.62770597370252
O           0.71009298639245   -0.62484788346720    1.15730496697513
O          -0.90335861326309   -2.22730802007146    0.34044171187735
O          -0.29218654870457   -2.04301798237971   -2.15719502552680
H          -0.47942144078206   -2.87873368810698   -2.58733952168110
H          -0.54821820975285   -2.16708175347458   -1.20284663606652
O           1.91955490770219   -0.73422990266967   -1.20485139749823
H           1.61960469764508   -0.80989815051450   -0.27253990932618
H           1.31879469528159   -1.31748789234510   -1.70101979768058
O           0.30411526286064    1.90860533774868    1.03745255803006
H           0.68448666595459    0.99744638623936    1.12193091096626
H          -0.63618221719266    1.68844227806655    0.90675702142493
O          -1.47511462220191    0.42498575626762   -1.98907458989222
H          -0.15763543045528    1.24656468011464   -1.87756149534833
H          -1.19655002589529   -0.45933789871130   -2.28436757141280
H          -1.67817122135224    0.30954664313559   -1.03224453936512
O          -0.02771813649276    0.85670810314770    3.62542456148119
H           0.05693441842263    1.50670682915587    2.90826622617971
H          -0.85094401061756   -0.52552366888683    3.06423219102620
H           0.85503603978089    0.51106945818734    3.78018745119841
N           0.81427942108132    1.60428811284343   -1.58566220531509
H           1.41827194727833    0.72085152052072   -1.51895195898413
H           0.71875074808090    1.98167873162222   -0.61341459155535
H           1.19084969033097    2.28901395125979   -2.23032515871214
