    26
        -50.44909139  Gyration_radius:  2.56476249042 Dipole_moment: 4.383
 S          -0.07679554617386    0.60690996403710   -1.41747134436047
O           1.32728658161369    0.34630772466221   -1.09156446791941
O          -0.03405000494650    1.58067273755077   -2.63936773709689
O          -0.76167318302930   -0.61233452433640   -1.83753594134274
O          -0.75531240755749    1.26371449955505   -0.31958107180381
O           3.03128064614797    1.02422907978411    1.52639836099895
H           3.19579552886396    1.49494268127550    0.70479717045389
O           0.12033028955842   -1.50567377327182    2.19633729262932
H           0.05383590487872   -2.36742423872704    2.61001013004701
O          -2.41437467821646    0.67533109477736   -3.38778969054804
H          -0.94089025511362    1.53440104206282   -2.99857390220780
H          -2.42825347308747    0.29436715385623   -4.26862006824821
H          -1.97998351767875    0.01465420288608   -2.80604246732087
O           0.49584210178289    1.37110774046926    2.01082298522744
H           0.21076511654281    0.53619551262801    2.39815134785624
H           2.11532211165124    1.30306661947582    1.81384501048500
H           0.02829608890793    1.43874997887392    1.14794173283797
O           2.14248027525667   -1.15673615459971    0.67278653463294
H           2.65926256560628   -0.35528643775271    1.11475454344721
H           1.34475859289513   -1.34438085664642    1.28991378926595
H           1.75529768186600   -0.63911731465390   -0.16924270809324
N          -1.91431563884048   -1.12445552923569    0.65760246694243
H          -1.52646755389335   -1.14005101465830   -0.28833450589381
H          -2.75376995988287   -1.69077360004815    0.66827451128756
H          -0.71386367005352   -1.39128287073082    1.60368819547196
H          -2.18080360709810   -0.15713371723340    0.80879986324902
