    26
        -50.45531363  Gyration_radius:  2.49883324254 Dipole_moment: 3.250
 S           0.46318285185304    0.90428045261144   -1.12453668200478
O           1.43112319742561    0.13820539941150   -0.32090500952948
O          -0.71027365093318    1.22767573020206   -0.33929637770028
O           1.07705746287240    2.01858096437863   -1.79410103734385
O          -0.05985718407174   -0.11518889612375   -2.22756662282762
O          -0.57562905669721   -0.74288553113248    2.81253654306231
H          -0.30370100855281   -1.03034994117492    3.68517792731763
O          -1.44378562594085   -2.06615697278812   -0.82806266823040
H          -1.13083586836904   -1.47637082524969   -1.53161564669767
O          -2.58204619931723   -0.33657915059876    0.77538385532344
H          -2.07964437646928   -1.52375568667095   -0.28914696360773
H          -2.19470730212036   -0.47554322443177    1.64809788933969
H          -2.05143391452840    0.37222742546789    0.36412402852895
O           1.99790989790112    0.51491873441414   -3.69893766983986
H           1.85083930969185    0.92424158920895   -4.55483714982290
H           1.91365951329982    1.23035357603388   -3.03088140674790
H           0.66625950089635   -0.10616575511694   -2.89119110423515
O           0.48713212311490   -1.86739492577942    0.74491324242271
H           0.96290790800163   -1.01711380889737    0.28523524235703
H           0.06429955993266   -1.50962896789190    1.59523633147637
H          -0.31368326271054   -2.08990010241163    0.08432819571924
N           0.56739516596284    1.50936324067231    2.15497309460428
H           0.06448949909477    1.62284606224550    1.27329699551129
H           1.53310209482525    1.33813669259954    1.89964761419627
H           0.52330214349760    2.38786283875404    2.65597146379154
H          -0.15706276859686    0.16834108231526    2.65215592493598
