    26
        -50.46972959  Gyration_radius:  2.43076005507 Dipole_moment: 5.139
 S           1.48064102268213    0.11786136001751   -0.50983146316290
O           2.00781436925836    0.10488541757544   -1.84907610656496
O           1.04386899740422    1.46535743904568   -0.09115979533058
O           0.13205427396975   -0.71425775075198   -0.61129046195744
O           2.29798125054487   -0.51072354173856    0.50037388224047
O           1.24312621242075   -2.48814386724569    1.91306685791463
H           1.62297758400136   -3.31884918440180    1.62619817413927
H           1.71727405020615   -1.78713103459685    1.41325556341542
O          -2.80060290883897    0.13722058855704    0.16223855451841
H          -3.07737459202464   -0.68018308813722   -0.25619241683831
H          -2.22696525828424   -0.12717923898248    0.90371499119200
O           0.94282921804289    1.02568478325611    2.50831034343548
H           1.73646376171658    0.50328453432201    2.65665242958089
H           1.03600501255985    1.35795226027533    1.59161921351420
O          -0.11644820366270    0.25508752303453   -3.32414977303214
H           0.76865390510306    0.23647224980673   -2.87246776636969
H          -0.39025250667127   -0.66389514755730   -3.35492902980267
H          -0.90143320334075    1.14441013184997   -2.24044639440108
O          -0.82444235140989   -0.79094978276614    1.81720892268504
H          -0.28937748676706   -0.05729170638488    2.21883474364202
H          -0.23707375899153   -0.77993068720682    0.31082044879703
H          -0.33546857946988   -1.59725265190418    2.06025955566618
N          -1.17455322834564    1.68377779415970   -1.36894989682501
H          -1.87454053761748    1.14222955237731   -0.81072963620112
H          -1.51584866167667    2.61253236715278   -1.59263003054009
H          -0.26530839081620    1.72903169027361   -0.80070088973134
