    26
        -50.45531363  Gyration_radius:  2.49879683979 Dipole_moment: 3.251
 S           0.10003675674976    1.50997075485423    0.08020929547466
O           0.88642435293596    0.75003691677965   -0.90650455395196
O          -1.14003696976995    0.82506128637810    0.38221134394877
O           0.93998664865818    1.43328762567344    1.42859986086791
O          -0.03895874930063    2.89283860529207   -0.28739931625783
O           0.90827900585325   -1.23832602106951    2.16377169184069
H           0.96790501392134   -0.27054782753945    2.18958181256599
O          -0.95818590534168   -2.59554644004256   -1.06708408079293
H          -0.94698205730479   -3.30030214503440   -1.71613557175430
O          -1.61688666055867   -1.54577696751120    1.54163904253384
H          -1.64061762467967   -2.11731007077972    0.76460537249304
H          -0.06440338208470   -1.44497724391130    2.15390216985143
H          -1.62765368015437   -0.63319640640746    1.19489939765372
O           2.32069198769506    3.48915107802522    0.61433369288465
H           2.29226782949587    4.30088193368359    1.12624764004885
H           1.63355554009693    2.11699713199026    1.28963519761223
H           1.50476863722869    3.47726505337084    0.06716489079751
O           1.28822942767203   -1.59420525921754   -0.27978627081044
H           1.16615648594732   -0.57189357939950   -0.59685776037409
H           1.23127317116295   -1.53345408641118    0.77865795642258
H           0.44548998476046   -2.07072628650880   -0.58410408140285
N          -1.57727566069783   -0.30745367310178   -2.15949250829686
H          -1.27737705920859   -1.75575331092118   -1.54040047641632
H          -1.60139342979053    0.21784040317977   -1.28392030329111
H          -0.77983130229205    0.05080887814063   -2.67220831465354
H          -2.41546239095853   -0.08467036954153   -2.68156611702276
