    26
        -50.45531361  Gyration_radius:  2.49886344407 Dipole_moment: 3.250
 S          -0.83015630591311   -0.51420031289946    1.15872173482604
O          -1.43691689093639   -0.27940128529184   -0.16276855167850
O          -1.81207768972847   -0.53871423000794    2.20853398935688
O          -0.16694339916273   -1.95642936907430    1.06096522144650
O           0.28307983598832    0.38641916410904    1.37708171696555
O           1.87190281716558   -1.70161838336549   -0.79894599408518
H           1.32334750401436   -2.01180461390623   -0.06158737624347
O           1.08512661598444    2.04347169325756   -1.85508643855647
H           1.00960609182290    2.62372166071615   -2.61380110585644
O          -2.47450227004804   -2.99416169968762    1.68920461899070
H          -0.93649005348569   -2.55660070810590    1.18470913508794
H          -2.55093165887452   -3.50281880577754    2.49986547580375
H          -2.52345437983002   -2.04804174779789    1.94949458276665
O           2.64125267409202    0.62582853388590    0.12244644242191
H           2.38243867980980   -0.92593365301444   -0.44313864244138
H           2.41359264013759    1.27682232047903   -0.55235857585945
H           1.88528822090944    0.61472114000502    0.74016222656092
O           0.16072299499921   -0.36154449937230   -2.03094634939063
H          -0.58944908500203   -0.33738453539093   -1.25794631662915
H           0.55749481767629    0.57231043400186   -2.04727845465886
H           0.90992902297201   -0.99714275764807   -1.62853017477517
N          -0.72546468402888    2.59095413880121   -0.05685857396266
H           0.40657685120441    2.35720878787608   -1.16785197263964
H          -1.62383401377456    2.23246834922899   -0.35940804291306
H          -0.38169518195896    1.92496386989278    0.63696912562430
H          -0.87844315415178    3.47690650907456    0.40835228992946
