    26
        -50.45531363  Gyration_radius:  2.49881225834 Dipole_moment: 3.250
 S           0.25175345651131    1.28227434916527   -0.76751078378878
O           0.74486230856337    2.59789052335188   -1.07211213056611
O          -0.49796236625103    0.71974725494462   -2.05248126388839
O           1.34281367941530    0.32691748932714   -0.50974552168221
O          -0.73818980765196    1.22440307049421    0.28833580621895
O          -1.61913706475132   -1.68579945506170   -1.25525673704985
H          -1.43824970547652   -0.86000310328677   -1.73080890687615
O          -0.02791065926536   -1.76760847779949    2.38093405759883
H           0.40393975690210   -2.34374010709475    3.01309402749181
O           0.58604650751332   -1.98042400701560   -0.11849719475955
H           0.97944810330794   -0.99504941086183   -0.30570649162417
H           0.34536738932056   -1.98911790195776    0.86730408147929
H          -0.33294457006870   -1.98502807605657   -0.65014474910250
O           1.24391289542892    1.96526793522243   -3.53946790867481
H           1.30684735605549    2.37457921700300   -2.64855481474327
H           0.08404713532992    1.01561263222740   -2.78834690545979
H           0.94024850478413    2.65513197474633   -4.13412731131004
O          -2.38619783596281   -0.74385731955700    1.06473814496111
H          -1.93231319230227    0.09539530936494    0.85791055245823
H          -2.12609000249261   -1.41930444724432   -0.44229695395927
H          -1.83833146223317   -1.17608169324114    1.73107877763968
N           1.00910504546660    0.62720201663736    2.41515606611936
H           0.36917568581658   -0.84048041944081    2.49886928967126
H           1.90230149793821    0.61709233783691    1.93635708970324
H           0.34542937833844    1.03273915417625    1.75316820171776
H           1.08202796574083    1.25224116411870    3.20811158847755
