    26
        -50.45531362  Gyration_radius:  2.49879014567 Dipole_moment: 3.251
 S          -0.70420697431415   -0.82943663454917   -1.05493836365922
O          -0.70575174624188    0.64196427434250   -1.12214033166064
O          -1.76994527417668   -1.40782858334471   -1.82724400508418
O           0.67942215827810   -1.27323694595182   -1.70158174077449
O          -0.62615643435195   -1.27810014388091    0.32007625874335
O           0.19979246240678    1.65617109013870    2.45156359428643
H           0.09981304969306    2.48265697119832    2.92589277708952
O           2.63382940032530   -0.32183856661881    0.01731963729743
H           2.16195521100528   -0.83848004231813   -0.65441664845798
O          -0.45025587506115   -1.15936817486843   -4.04837849291753
H           0.49756888598220   -1.20669496873199   -2.66607445544072
H          -0.51595689894649   -1.96075276924154   -4.57295623307434
H          -1.18424733210519   -1.19350126661824   -3.39613265462732
O           1.29918315108731   -0.99903196373839    2.16619042852768
H           2.33662801891861   -0.68869614376966    0.89255619881936
H           1.01911807592461   -0.17664603771099    2.58600331507222
H           0.55194609805769   -1.27048222551964    1.59949528541767
O           1.17193072825810    1.70380724221444    0.05953908022179
H           0.85441609920992    1.74721625814440    1.02244372048030
H           1.89919026774895    0.93130042537981    0.01955406386522
H           0.34254201534154    1.29669449326109   -0.49445361330352
N          -2.08195684846554    0.82975318919102    1.49103448626713
H          -0.72897805014950    1.35550776036218    2.17203807672994
H          -2.93123357990895    0.63927340658555    2.00794220943853
H          -2.32454251726802    1.37719809481073    0.67335655210911
H          -1.72410409123325   -0.05744874875213    1.13331086463023
