    26
        -50.45531365  Gyration_radius:  2.49876596608 Dipole_moment: 3.249
 S           1.12917795951657   -0.53125410319165    0.85992764806904
O           0.83759188313789    0.91122420177685    0.79839413057200
O           2.02930591411005   -0.82784194608239   -0.41733528533264
O           1.88129945872454   -0.88196889189799    2.03383785410688
O          -0.07600184772536   -1.30579355739538    0.64608224801524
O          -2.73560406722304    0.99851235753034   -0.55964587440646
H          -3.40404183877364    1.68496883488537   -0.55471038402329
O           0.38541203314256   -0.36540092923711   -2.59966092720607
H           1.09879898880638   -0.69202481461451   -2.02937673833481
O          -1.68341369896062   -1.52533043367123   -1.48945103282749
H          -2.32081682197414   -0.82634703587127   -1.29939677655939
H          -0.40479897273856   -0.93067412094849   -2.38767763241943
H          -1.16423924991268   -1.63502483375151   -0.66996451385705
O           4.12135187916829   -0.11931469505431    0.96744015228798
H           2.91921438599659   -0.52296328969060   -0.12934758136842
H           3.41149888903324   -0.29910601804559    1.62242874810037
H           4.81193001050982   -0.76576385911847    1.13146424831638
O          -0.32506387353039    1.61456197810128   -1.25178262384129
H           0.20441310499843    1.37169796236598   -0.34551107578424
H          -0.01022120261932    0.86216505894134   -1.93151330625506
H          -1.30141849661879    1.42587953958563   -1.04939224003022
N          -1.89203813198795    0.47618534920256    1.85435479570565
H          -1.26689063945656    1.21223702827162    2.16186876843510
H          -2.44769708915418    0.18085782264211    2.64730432772043
H          -2.50828123384899    0.79310864862891    0.40849222841182
H          -1.28946735256437   -0.30259026337125    1.58317083243956
