    26
        -50.47393290  Gyration_radius:  2.40328451132 Dipole_moment: 4.919
 S          -0.78879345327618    0.15882193386502    1.46245385468162
O          -1.73494578137303    1.21196908514588    1.18253687656254
O          -0.97104925274557   -0.99507165841919    0.56297234570058
O           0.59750063758935    0.62041779704921    1.40171992734460
O          -1.06031090487719   -0.35010024730398    2.90476815020480
O           1.52375159355747   -1.55117817970512    0.29626802140844
H           0.53339854627005   -1.54349728563091    0.27743923050616
H           1.68939236744659   -0.73914867088490    0.80954316564883
O          -1.27683591885483   -0.30469541647273   -1.98348773072594
H          -1.33228735602488   -0.65508315531258   -1.06742717583437
H          -1.52934751390806    0.63161790550308   -1.90139557486637
O          -1.52902294609530    2.29401695982375   -1.14824481800030
H          -2.17834216468376    2.99452129450904   -1.22686402241694
H          -1.64819438184265    1.91650219482331   -0.23452319567799
O           0.40259934239919   -2.56328016920203    2.67213158032957
H           1.04876796794267   -2.40720544834154    1.96380657053168
H          -0.48791938480484   -1.14229816545010    2.97611695984334
H          -0.27146912880701   -3.13695233389920    2.29890579140054
O           1.16976574434993    2.11293327938944   -0.69823192882352
H           0.28371231591512    2.42545415825262   -0.95133639175271
H           1.03780990432689    1.69404113410690    0.18323201065361
H           1.40802100110866    0.83674005949409   -1.55777448613550
N           1.33282883772973   -0.14627811080699   -1.98853531066752
H           0.28378989638415   -0.28614191791570   -2.16077087592590
H           1.61133817762521   -0.82647104923000   -1.24232389513211
H           1.88584184472964   -0.24963399340280   -2.83097910884689
