    26
        -50.46000127  Gyration_radius:  2.49668440004 Dipole_moment: 2.109
 S          -0.10225482777365    1.01525683576629   -0.27193733136180
O          -1.15618848607845    1.48421803772341   -1.14532933225786
O           0.97747168176758    0.34449560699335   -0.98589449791654
O           0.55215910404561    2.24037049691195    0.44515939347601
O          -0.62762487585551    0.15844985142960    0.79848731513872
O           0.20183084072255   -2.03514245657862   -1.82359252138081
H           0.68236650292716   -1.18958925267864   -1.68864292883310
O           2.18063123937913   -2.29027514639089    1.53729936250217
H           2.80446398329249   -2.74735850682999    0.96953091428865
O          -0.20266682609406   -2.28707741832092    0.62471483028544
H           0.72740582359610   -2.37663627110672    1.05030546013443
H          -0.45910280717286   -1.28408206816886    0.76954734479024
H          -0.05976357249128   -2.32936665769683   -0.43022278811308
O           2.66044958420908    0.25126984933086    1.03811685035217
H           2.37633935010262    0.99821342290056    1.56873490866509
H           2.14989957109607    0.32519206255299    0.20498006579628
H           2.40400033124257   -1.32746523942558    1.46812345847397
O          -1.96824737856403   -0.65648842916154   -2.49411619922913
H          -1.73977396727807    0.14960924559903   -1.98176200690148
H          -2.11119701669652   -0.36100362443232   -3.39527394905674
H          -0.66655379705347   -1.74320748019674   -2.18411251760930
N          -1.83918683142846    2.81896764831161    1.27124809271220
H          -0.23812779848965    2.67244920555926    0.87627977809630
H          -2.41200193372067    3.59558279115489    1.57720330192447
H          -2.11463279231290    2.55080651069110    0.33071392501962
H          -2.01969510135860    2.02281097607193    1.87043907099013
