    26
        -50.46000139  Gyration_radius:  2.49606040123 Dipole_moment: 2.090
 S           0.97097727988073    0.41810622815467   -0.04835918422147
O           0.56617573372010   -0.21840646079267   -1.29594914748369
O          -0.16065644846413    0.49877163786936    0.88392324626213
O           2.12223873332578   -0.20959348020921    0.56291039666180
O           1.32706581530472    1.89537553577355   -0.41522788555246
O          -3.24391808129026    0.27285021961541   -1.32362763950946
H          -3.44495043640715   -0.24978386779060   -2.10268150485076
O          -0.58199436674171   -2.54749018312457   -0.82379015951250
H          -0.13684184205710   -1.77973535505913   -1.24386394940551
O          -1.12352646919309    1.65422925683926   -2.05455718246421
H          -0.45027864648292    0.95676954388995   -1.91097005199666
H          -0.77138342984733    2.43118011957105   -1.61569557206460
H          -2.52038838639529    0.89436693873401   -1.59181705218303
O           1.46029259222023   -2.76578100121270    0.86203199231630
H           0.08708860949389   -2.86608751978925   -0.17566913346268
H           2.24367326610323   -3.26902111158959    0.63203482599980
H           1.72808379861170   -1.82175356778222    0.82226725863097
O          -2.06839247615241   -1.05480830533348    0.51177641599350
H          -2.63494075900985   -0.54283593113612   -0.17453686558975
H          -1.53610856206008   -1.80229487022004   -0.02952384683151
H          -1.30570334318984   -0.38765095605953    0.76845450164892
N           1.94380869145528    2.18412555982530    2.08904811422501
H           1.02998653968947    2.04579618329007    2.50308237732395
H           2.36401623310741    1.26479216746691    1.98677467147172
H           1.62741836128527    2.25877567354817    0.46474183768354
H           2.50825759307704    2.74010355551623    2.71922354694497
