    26
        -50.45731615  Gyration_radius:  2.44425958308 Dipole_moment: 6.856
 S          -1.11849014112415    1.05940033069443    1.27620797618537
O          -0.45906348116121    2.17315252639605    1.92208074921320
O          -0.21286951658943   -0.11776451906927    1.27250374594349
O          -2.35311202780388    0.63318891056234    2.12711435089450
O          -1.57208509200940    1.36696946681720   -0.06891050493257
O          -0.96343733895897   -2.15140280180781   -1.62273476919664
H          -1.05446806872372   -2.97167217566951   -2.10869643068374
O           2.38230268950159    0.66675303968800   -1.08911596518892
H           2.88250771072425    1.13214917522435   -1.76077648352863
O          -2.93800294710154   -0.91976857051293    0.03069456190384
H          -2.33621675206570   -1.53067656426637   -0.42224563572293
H          -2.74414510864740   -0.08782864997108    1.59295570351920
H          -2.69398133090278   -0.04732039678770   -0.31598376308862
O           1.21339329276573   -1.92388978654994   -0.10395867217056
H           0.65333757491283   -1.38607126421209    0.48633093348037
H          -0.15415850561009   -2.23365810979763   -1.06595368951513
H           1.81011240981703   -1.29940364871932   -0.53164700617927
O          -0.02483097361219    0.47811145971066   -2.00397410013541
H          -0.37292893365769   -0.42545122575420   -2.06924774140840
H          -0.60861421089295    0.91631652614216   -1.34732447260823
H           1.44483143930838    0.59875588224341   -1.45458726876374
N           1.90496111396510    1.23442996880638    1.46468827456753
H           2.24674421466410    1.20172492349518    0.47202342068632
H           2.65070236928295    1.15641961509133    2.14712106038860
H           1.25357365348776    2.02874665855410    1.65132862685527
H           1.16393799042961    0.44878923969137    1.52210711948083
