    26
        -50.45273916  Gyration_radius:  2.45703880349 Dipole_moment: 6.229
 S          -0.60009714808410    0.65162830646475    1.87706990409369
O          -1.11331163137170   -0.48032915164000    2.60107777186280
O          -0.59891637073447    1.93295191100262    2.54126796569624
O           0.93097078215372    0.42804712986299    1.57747422376056
O          -1.23924825837600    0.76391450808689    0.53395563743495
O          -0.40412047801691   -2.52551441017118   -1.25036750639660
H          -0.52295178401033   -3.40492715671078   -1.61107777052039
O           1.65947715439309    1.21996398513586   -1.56708851856999
H           2.07728940996337    1.44347673691062   -2.39956979099041
O          -1.68658903265732   -2.51503550770059    1.05211583393468
H          -1.50352721197600   -3.23010222911647    1.66483695124586
H          -1.55281077046603   -1.69138305098866    1.57875164464743
H          -0.93410942004304   -2.49420272173506   -0.41222245452688
O          -0.66485249685392    0.10433290156941   -1.98727770628587
H           0.77603828657056    0.80908428681454   -1.79638153570015
H          -0.60675324679901   -0.86455368362575   -1.98235631427873
H          -1.06828220998986    0.31431064989508   -1.12269757865588
O           1.78480130345640   -1.28975272268405   -0.16941834171237
H           1.99505292570314   -0.53537934105105   -0.73752580111989
H           1.18041833505502   -0.35762732055746    1.02001469581139
H           1.06191833996381   -1.77978794944922   -0.60206965683005
N           0.23622400707298    2.75561801473142    0.21465395324880
H           0.32494776473689    2.73905847796443    1.25392892237859
H          -0.55084583565800    1.98576202335860    0.15071400101640
H          -0.03282043228033    3.66550392688580   -0.14440990753506
H           1.05209802823795    2.35494239675836   -0.28339864200240
