    26
        -50.45514679  Gyration_radius:  2.45615960178 Dipole_moment: 5.628
 S          -0.97239935391604    1.05885579802794    1.34871261248782
O          -0.29145898105615    1.24864545020037    0.09644862455105
O          -2.28264126053773    1.62178249841380    1.44322893486491
O          -1.07278117167497   -0.46848333074331    1.61690705106176
O          -0.09356564231577    1.57605498032251    2.49038875372612
O          -1.36676672995347   -1.05306779888506   -2.14013072023416
H          -1.89003850067014   -1.57664337462481   -2.74912971722371
O           2.43800350078830   -0.32570196816552   -0.84779466744526
H           3.12513911518271   -0.69864352174260   -1.40199807582053
O          -3.15606997073572   -0.14689057435986   -0.37493224489446
H          -3.27632869657855   -0.85365852058268    0.26476283136342
H          -2.96048729811157    0.64285499275597    0.16121729030277
H          -2.00980472744885   -0.60488910915412   -1.54153987274758
O           0.27572123799812   -1.77964224503465   -0.08505305889366
H          -0.49677879793495   -1.01024951086542    0.96206159482205
H          -0.28759008883470   -1.63832492631554   -0.87064280856076
H           1.10442612387545   -1.29535332824581   -0.27840078899001
O           0.66038457288398    0.87335518260296   -2.35763178061500
H           0.00170718069463    0.19026259110558   -2.55503831943384
H           0.29295023324069    1.31740017552923   -1.57569373141499
H           1.84140319594618    0.19460815747228   -1.45621260254424
N           2.16430676933785    0.50896454321358    1.95433086703646
H           2.19869610970387   -0.41285740064450    2.37050823508968
H           0.86545381648125    1.18596227300181    2.30978214125800
H           2.96377234411497    1.04043385565202    2.27308165907305
H           2.22474701952960    0.40522511106959    0.94276780317990
