    26
        -50.45741763  Gyration_radius:  2.48313857244 Dipole_moment: 5.471
 S          -0.58016668657160   -1.20036746694321   -0.93805161695834
O          -0.66799585879555   -1.12332728994434   -2.47223774067943
O           0.80510362452656   -0.87266690958401   -0.54852013736034
O          -1.47399467365179   -0.14906913186706   -0.40495404130388
O          -0.95624885000853   -2.51827124106782   -0.50558972506033
O           0.73599046565721    2.57601294388704    1.24165948873528
H           1.47336985729213    2.62522115535269    1.85305324477872
O           0.94253975435699   -1.09797421879064    2.05758650111191
H           1.09402631479231   -1.10235325217843    1.08257869795344
O          -0.83903190842471    0.61835898533728    1.84994106888051
H          -1.19986984398999    0.29664807388074    0.89445632092676
H          -0.08550326915290   -0.11931956007174    2.07522394114430
H          -0.32045973149529    1.46725187883598    1.66200702725503
O          -0.53239240501100   -3.28262658193165    1.98786886276180
H          -0.67150687093033   -3.13460230973589    1.02563386759451
H           0.50431144163861   -1.96444063855015    2.23257765394670
H          -1.40764213779467   -3.38051101206994    2.36617860703639
O           1.71752716963395    1.48834568749726   -0.98722950213069
H           1.10083917311595    2.26150334420253    0.38139822964033
H           2.65945565346987    1.38261484029115   -1.13082625837642
H           1.36180631561299    0.56481062021360   -0.85408361843363
N          -0.72584502001856    1.44907014836369   -2.62519473879106
H           0.16545961827763    1.79564615344667   -2.28565414867096
H          -1.02048479314616    2.00202812674728   -3.41853678362030
H          -0.67523515782813   -0.12191613441215   -2.66139259218463
H          -1.40405218152923    1.53993378907971   -1.87789260820241
