    26
        -50.45469719  Gyration_radius:  2.51020402786 Dipole_moment: 5.574
 S          -0.21253952424072    1.11882380813379    1.89702823089940
O           1.14103057969062    0.43501098181920    1.59889183782281
O           0.07008827343703    2.61340451753170    1.72113853116917
O          -1.16326296343796    0.70619669011245    0.87858479708193
O          -0.57795171331962    0.82058826242224    3.23628310310415
O          -0.84509864040855    0.60963410249816   -1.76011073593761
H          -1.17452580007288    0.68659456292595   -0.84364363927841
O           0.45208964470710   -2.69092421775532   -0.05649391447107
H           0.86533240005613   -3.50806971389659    0.22589246892197
O          -1.24364262531896   -2.06120204331441   -2.17518492064579
H          -0.97515298778512   -2.59054754344820   -2.92709541206425
H          -0.72245990380775   -2.36770650473674   -1.41345775879387
H          -1.17789785047221   -0.25126927828872   -2.07306315696883
O          -0.98941822156841   -1.72580047346665    1.96182876936534
H          -0.68594903456256   -1.38245511603038    2.80791158477842
H          -1.34546439421050   -0.94513071122744    1.50569228034562
H          -0.06549596658470   -2.36474880973625    0.71944502888755
O           1.46566879901245   -0.25752143942441   -0.81123219955291
H           1.29794330140704    0.20144079211673    0.60844300593671
H           1.28735425622276   -1.20322088848108   -0.66118466917888
H           0.65940930939943    0.08403066797491   -1.27856008190189
N           0.81742357723671    2.82936137530747   -0.71929979026696
H           1.69999255769373    2.34141350512977   -0.81382893910389
H           0.92934432117373    3.77890511425308   -1.04919132693677
H           0.13367997737814    2.35640929945342   -1.30288620590617
H           0.35950261823901    2.76678306012228    0.72409310298379
