    26
        -50.45408581  Gyration_radius:  2.40659090145 Dipole_moment: 8.072
 S          -0.51590335024553    1.98172311214620    0.54992463457627
O          -0.79707093290224    3.02721965822439    1.47568701564975
O          -1.50816811739831    1.99122046519158   -0.64773626876520
O           0.82093468818154    2.10428187222358   -0.08068163892717
O          -0.60936252003913    0.63946926982276    1.17826074449073
O          -1.57954060556338   -1.29603241944059   -1.76155647347511
H          -1.97571821338318   -1.35258218043869   -2.63178717526877
O           2.28406217860082   -1.57355003436703   -0.08060940436519
H           2.78459675634229   -2.38985377492524   -0.07539105043486
O          -3.04883574566052    0.06389192703952    0.10550415589776
H          -2.44982123510366    0.02776254580737    0.86419374728860
H          -2.25282953406704    1.37038969435707   -0.41960805791376
H          -2.67910625766391   -0.55200740781056   -0.55763042182108
O          -0.20773544545420   -1.93081874084599    0.54366974497535
H          -0.41352337185302   -1.01558006411110    0.82675626063945
H          -0.74466275200977   -2.06452402088046   -0.25014012573962
H           1.33326424647130   -1.81783226826710    0.12785070703011
O           0.66207256087516    0.11682347017197   -1.85995595814954
H           0.64739486997900    0.94695696781352   -1.34533114708833
H           1.38896176181646   -0.40675919892989   -1.50162967355588
H          -0.78937581950857   -0.70581052932592   -1.85775985477031
N           1.97931499684588    0.55389955161302    1.51576735736308
H           2.32453987916118   -0.28161578943848    0.98980082020842
H           1.71433506439945    1.33287518569368    0.78982860777092
H           1.01785504918025    0.36289421882137    1.86180739892567
H           2.61432182899843    0.86755849985469    2.24076603545947
