    26
        -50.45469737  Gyration_radius:  2.51021085409 Dipole_moment: 5.578
 S          -1.74351817374889    1.34372467085296   -0.22271648537707
O          -1.44659848041367    0.33698943312018   -1.35727734405668
O          -0.64105671256003    1.29978148162460    0.72274820033769
O          -2.00223594342880    2.61168312626835   -0.80708007122666
O          -2.99406447746290    0.78567938856092    0.46235842307187
O           0.55857029101732   -0.82108817663088    1.78870009214153
H           0.17151040382510    0.05386498631337    1.59129140840035
O           2.13431286366209    0.09608862142375   -1.69792436086483
H           2.56472728170511    0.16095575760591   -2.55157020939656
O           0.14608117039462   -1.52330638346633   -0.72714360257586
H           0.32040342955633   -1.38381440973753    0.23991793409333
H          -0.84147716216892   -0.45109451298986   -1.08768061315738
H           0.91942503571863   -1.14150933216247   -1.17968835607006
O           0.83330837972769    2.36956066200144   -1.22652231776556
H           0.06379617152768    2.72904941058246   -1.67887309249472
H           0.50181880812910    2.14684534915979   -0.34055949201674
H           1.66008546321746    0.95286450229363   -1.56583178682612
O           3.09861193672393   -0.42724448535493    0.86250887276414
H           2.84496763099987   -0.16677216442923   -0.03954988512715
H           1.52173982536862   -0.68860797022806    1.72056069848075
H           3.80140823357802   -1.07275846268778    0.77830810315817
N          -2.27543898609189   -1.52770158909577    1.29468371010313
H          -2.09045638523831   -2.10246607997602    0.48139582772072
H          -2.75004835252428   -0.15963764781944    0.84744497742843
H          -2.95010585052142   -1.99801682148463    1.88350074494156
H          -1.40576641097625   -1.42306934369356    1.80899861429082
