    26
        -50.45649613  Gyration_radius:  2.47944668241 Dipole_moment: 4.759
 S          -0.67220028300031    0.27352285254006    1.68397705374459
O          -0.69177914841564   -0.12430960096314    3.05619161471620
O          -1.61464484666145    1.49155353749120    1.43761159075837
O           0.68559314496513    0.71482011648296    1.27383892991977
O          -1.09629053083041   -0.81038349713800    0.78141100149262
O          -0.43910566295800    1.51897594011030   -2.27008386256832
H          -0.36782559391990    2.04563102798626   -3.06697045372971
O           2.28527963555110   -2.44584720560624   -0.79174571079548
H           2.15720964058736   -3.32317652204721   -1.15652877830569
O          -2.62701964820400    0.75624685323827   -0.81249263241516
H          -2.37730839384488   -0.13194102721664   -0.51672886105399
H          -2.10748074470602    1.32035212315497    0.57810302438720
H          -1.95629381792464    1.01776119733867   -1.47299873044644
O           0.37244965243091    2.88821345848203   -0.17499269565971
H          -0.36708918704060    3.28963429290151    0.28880643753572
H           0.63096043473591    2.12249110104430    0.38529723576530
H          -0.07479266162843    2.07314591757978   -1.53047140580731
O           0.18745806580294   -1.09409004784701   -1.54259845875670
H           0.13811783953631   -0.21167149628737   -1.93974756193153
H           1.58446134821486   -1.87423960405948   -1.20901993420692
H          -0.30124039334772   -1.01990471604315   -0.69657056295185
N           1.35611053775888   -1.73097055305439    1.55896732887339
H           0.35116031664270   -1.95213408181253    1.53305520184471
H           1.84127244414960   -2.12077016835842    0.69162180528787
H           1.32440568263356   -0.65321178382241    1.47629498291157
H           1.77859216943429   -2.01969809410385    2.43577344141097
