    26
        -50.45649611  Gyration_radius:  2.47938448089 Dipole_moment: 4.759
 S          -0.57675801971296    0.86317329850082    1.51060615474386
O           0.24160187942756   -0.37586199352200    1.54948412203753
O          -2.06470723901279    0.39974690370045    1.57302837819363
O          -0.25873531374087    1.72501747525877    2.60509135449692
O          -0.36499755651506    1.51422670570445    0.20652441985335
O          -1.40534007837568   -1.79012579341305   -1.57339176271431
H          -1.71059331476197   -2.53858057814777   -2.08736809022182
O           3.20948663033784    0.18791850062347   -1.22225087649120
H           3.58357682027299    0.74611035311494   -1.90610242839104
O          -2.63443705610578    0.57043005860400   -0.93195427479772
H          -1.89639755237376    1.19787964219502   -0.95094192407566
H          -2.29002076233225   -0.26084875871133   -1.31255649797800
H          -2.43206200032454    0.44402095778017    0.63813414506751
O          -1.37755301645062   -2.37315269497915    0.99224088326713
H          -0.68283885499428   -1.73108484967662    1.26079825448944
H          -2.17533201885996   -2.06485770448734    1.43004155702576
H          -1.37324387518297   -2.09037298152612   -0.62700372534512
O           0.66697977635958    0.05739626406730   -1.77874068699012
H           2.27829615602329   -0.01092534121245   -1.51436245132481
H           0.08771827231992   -0.71835540714604   -1.81726982582888
H           0.29085660627850    0.62073242363215   -1.07070350555687
N           2.21991554027202    1.14523334115063    1.01469523790390
H           2.79676782086992    1.47942479441530    1.78036993212283
H           1.52852775796827    1.85126032053234    0.72672837298516
H           2.77333525393686    0.80485982192685    0.16760458576609
H           1.56595413470502    0.34673525160728    1.33729865180191
