    26
        -50.45469716  Gyration_radius:  2.50994935097 Dipole_moment: 5.573
 S          -1.91622667419752    0.06586368692142    1.10384663909694
O          -1.29642688042732    0.96193014408585    0.14245192019813
O          -1.08776320388873   -1.23798695875637    1.15213028121911
O          -1.75759349161121    0.66863277467824    2.50243835922896
O          -3.26986600299333   -0.27456091972470    0.84327450508221
O           0.41582868481238   -1.70764369005680   -2.08728494062291
H           0.36669950920387   -2.54853873795019   -2.54413045463466
O           1.27146671929188    1.59726135461618   -0.13192956452650
H           0.29521657289048    1.57028378706452   -0.10787595756304
O          -2.05731908376504   -0.79902140464077   -1.71181852710528
H          -2.75286470810477   -1.15940020342057   -1.15285534784295
H          -1.82321591845271    0.04078938325671   -1.28249727010770
H          -0.51836353780473   -1.41062080436404   -1.96226585892733
O           1.69997052254375    0.69367998443695   -2.67475567727452
H           1.21143917767885   -0.14145911073343   -2.57601129902215
H           1.49951406139132    1.52972207638493   -1.07704454467893
H           2.53334432824712    0.48016244337620   -3.09604596599319
O           1.31429819490684   -0.99188655509745    0.40215916323093
H           1.17831922089793   -1.38834927416244   -0.47701463648768
H           1.42259482574100   -0.02021064610686    0.23094093717943
H          -0.09558119604851   -1.12928313039391    0.89916746521561
N           0.76380724050517    1.05531733787182    2.73681374562935
H           1.21386424555721    0.14788684281663    2.74267230482778
H           1.08471453098717    1.55898544984739    1.91516129562195
H          -0.73840844732088    0.87229233490185    2.64636769614118
H           1.04255131988941    1.56615382520266    3.56410571217913
