    26
        -50.45649615  Gyration_radius:  2.47946144101 Dipole_moment: 4.758
 S          -0.53323844470726    1.05869958658639    1.39853893823095
O           0.51226222990173    1.46921284647075    0.42650447161975
O          -0.25176706288144    1.56806869180298    2.70353065082316
O          -1.87876235926847    1.62647090139832    0.85090465124011
O          -0.62728356653080   -0.41106954552580    1.38037424948038
O          -1.21658269105481   -0.29274673154501   -2.46732994940792
H          -1.43230726776471   -0.34800019313367   -3.39893769105061
O           2.92043747520355   -1.81713095917673   -0.03979236860644
H           3.08357127383510   -2.73814023144918    0.17069940789520
O          -2.79425020280683   -0.51772349676398   -0.24142164288486
H          -2.20406248711262   -0.96416887829809    0.38397651199861
H          -2.36685304529557    0.86699726436770    0.40832457300299
H          -2.34481598131507   -0.55511680247217   -1.10809856750296
O           0.40345547362152   -1.71737270988645   -0.70786402733530
H           2.01695827168825   -1.79104838555251   -0.45813716259208
H           0.01924302428539   -1.26930737961172    0.07424217848658
H          -0.01069112631750   -1.28883893637380   -1.47183732984703
O          -0.73765516590327    2.19879134104055   -1.77032689484249
H          -0.15501139758999    2.00610120531673   -1.00189567779686
H          -1.00173570138073    0.65933129388131   -2.28219204878343
H          -1.51628869625348    2.61119169246564   -1.38718130695257
N           2.06218371646320   -0.08029466405260    1.73418242566041
H           1.62786523361579    0.68972850223896    1.11152122820101
H           2.55651990994962   -0.78467040803491    1.10243641746069
H           2.65624499080151    0.32055602714298    2.45325847089527
H           1.21256362695760   -0.49952003090026    2.13652049260723
