    26
        -50.45334073  Gyration_radius:  2.5925743597 Dipole_moment: 3.797
 S           1.16969478466641    0.42792771812619    0.81175122618539
O           1.38378313135183   -0.79406964298397   -0.07921927181431
O           1.17137355978862    1.61775694694105   -0.01177179932755
O          -0.00232137410716    0.28113964976167    1.62519997009540
O           2.41966317598772    0.41855394769934    1.70044924380427
O          -1.67200002783316   -3.17847240420815   -0.24922793672631
H          -2.48108793318886   -3.61916625955305   -0.51240888340742
O          -2.45741538769506    0.60055524949614   -0.94227879334651
H          -2.99626787015341    0.99209288973731   -1.63128360821960
O          -0.53728408407257   -1.20368704468237   -1.60317350870519
H           0.58306776181747   -0.96872880428871   -0.75826244144368
H          -0.89976487154232   -2.04094715444411   -1.21988915819268
H          -1.21351563740561   -0.51838995964760   -1.41557372888138
O          -2.33710902156952   -1.11544524624154    1.28666914094199
H          -1.92277417051910   -2.53313507785433    0.45550317006979
H          -1.51008895327024   -0.71627551795240    1.60116980826398
H          -2.63931961699660   -0.53123728133222    0.57657036819044
O          -1.30067621957892    2.49022188906282    0.47225482643027
H          -0.37268474379282    2.35830736333428    0.19711314848851
H          -2.05138417059834    1.35755886011585   -0.44142116569209
H          -1.33781236978932    2.11817478845385    1.35925005549725
N           3.91399272834522    0.92830224599684   -0.31764711142530
H           3.13070363067956    1.46256245076747   -0.68282654499935
H           4.75871384356736    1.48146607383618   -0.37728155418846
H           3.17766538825580    0.59072003902003    1.03567816696693
H           4.02284844766968    0.09421429080599   -0.87934360850835
