    26
        -50.45352271  Gyration_radius:  2.60005760119 Dipole_moment: 4.456
 S           0.14409770430327   -0.95624517480752    0.07486319196851
O           1.07352274842230   -0.66797247170019    1.18113461778240
O           0.53297739512313   -0.25392972885056   -1.13684706499780
O           0.24256120999652   -2.47338234756761   -0.17322707083285
O          -1.22459150991191   -0.63447025289446    0.47123970339528
O           2.22030474907938    2.83019016409941    0.88006993671567
H           3.02662416708805    3.20617222411135    1.23796726739664
H           2.49897317616607    2.08295365939350    0.27278144048889
O          -1.66436705236798    1.59434875268021    1.68030999072463
H          -2.32834115059510    1.39896720860932    2.34492216476741
H          -1.56791899981690    0.76423894925901    1.13530957020802
O           2.87678188553415    0.67576609067478   -0.42334293513139
H           2.95896681577437    0.02495611513140    0.28226625423494
H           2.04393148519397    0.41320689335482   -0.87425940437560
O           0.75345452838593    1.45148428537291    2.40714507380387
H          -0.23520751769269    1.64471480088109    2.18791761781690
H           0.91111788072527    0.49813625845902    1.95228939675422
H           1.33027451029681    2.09990705130662    1.83778048261241
O          -0.39279710135982   -2.29274257256799   -2.62973154099638
H           0.00856220710901   -2.57932284889951   -1.15121228534905
H          -1.35586647315331   -2.09686635526619   -2.50992836581136
H           0.04214204789954   -1.42820608876356   -2.58583053475680
N          -2.79492057283809   -1.44723326766811   -1.78563779205931
H          -2.34069259147646   -1.12193010867262   -0.93130284960216
H          -3.53188170007661   -2.08736024007056   -1.51806314238837
H          -3.22770784183348   -0.64538100559887   -2.22661371237098
