    26
        -50.45352259  Gyration_radius:  2.60001655822 Dipole_moment: 4.456
 S           0.13829044013419    0.82084820911484   -0.49835661329316
O          -0.07762815006133   -0.43108621105501   -1.20460188165384
O           1.16775855116711    0.69162649699783    0.52991045092814
O           0.58239805304987    1.89487034505184   -1.50933134053375
O          -1.11310317014485    1.32118390685229    0.09686685919081
O          -2.69387115278961   -0.56843410374450   -1.15401145824997
H          -2.77609112978604    0.37834385495153   -0.99576719037931
H          -1.72748223133808   -0.69068310791776   -1.28483078522359
O          -3.12766023528565   -1.56819378947928    1.20902454144915
H          -2.97867350077491   -1.30991107708215    0.25203078995611
H          -4.07722678554482   -1.59483320728241    1.34004268890838
O           0.53957462030695   -0.40194394870150    2.77320812898624
H           1.00877424526655    0.09969129437974    3.44327249144300
H           0.86206988842895   -0.05623169001515    1.89460408984518
O          -1.82225393547042    0.33105141440738    2.24492032284079
H          -1.54372223321760    0.83496026468603    1.34532877032368
H          -2.37688336466761   -0.48226019452577    1.91580260037400
H          -0.92008315718236   -0.03001495596320    2.58924616665979
O           1.81448588872030    0.23953853081907   -2.99673061337711
H           1.10997347439521    1.37968711099764   -2.20122154874788
H           2.59408868482752    0.07767305282759   -2.40823456970352
H           1.14359520231948   -0.39156117870067   -2.69644501167842
N           3.49239272568387   -0.12574171465282   -0.93562892377342
H           3.76799475738123   -1.06381453670244   -0.67333930518374
H           2.73418631866644    0.15830676496240   -0.31393978785403
H           4.27909619592549    0.48692845964847   -0.76181886130335
