    26
        -50.45479411  Gyration_radius:  2.47172652332 Dipole_moment: 5.891
 S          -0.25233513992644    1.67818897459093    1.24386100357070
O           0.06512233072247    2.05472714054892   -0.22277070974598
O          -0.52692256124483    0.25302096302161    1.29092376351754
O           1.05319673804243    1.95459448904705    1.99000420981255
O          -1.29726818453189    2.51271856539789    1.72472837077456
O          -2.10341886009730   -0.90399828443803   -1.66271286742228
H          -2.74317674157187   -0.98944952722490   -2.37085192778343
O           1.72421650639054   -1.90773418967965   -0.45577091775378
H           2.06322802519907   -2.69944844835935   -0.87551844130263
O          -2.97995726670976    0.67799286835143    0.30093293157309
H          -3.08892992321970    1.62284119711279    0.43668909072161
H          -2.21099027023111    0.44664973736700    0.84967081201392
H          -2.50259368291164   -0.29818805923196   -0.99736583230996
O          -0.71818655417777   -2.28531023235476    0.38891106878165
H          -0.71197089414212   -1.48348523408061    0.93709098014489
H          -1.29415824879337   -2.06395599649221   -0.35770337403436
H           0.83973428567915   -2.15406742991142   -0.06549934144934
O           0.43182575915931    0.08936605202121   -1.78530685036606
H          -0.47157385148479   -0.27707550142013   -1.85387818517154
H           0.23743757111382    1.25854005604797   -0.84348194928981
H           0.96797722947773   -0.60501945665607   -1.35356500312758
N           2.76334418541215    0.57074245580456    0.69513867054082
H           2.40232116970659   -0.35662517589730    0.47912431364967
H           2.91044290047064    1.06262687478972   -0.17742318018559
H           1.78983341872503    1.37251961330696    1.51843082212960
H           3.65280202894295    0.46982853834068    1.16634252271362
