    26
        -50.45479390  Gyration_radius:  2.4720128678 Dipole_moment: 5.879
 S          -1.09564388413592   -1.10503736149608   -1.41488304620176
O          -0.37809357415085   -1.05645425921803   -2.76413169807274
O          -1.63461188846972    0.33242621347379   -1.22384823540486
O          -2.18804598717280   -2.01312740037757   -1.45421817962327
O          -0.11746185106370   -1.35899698912840   -0.37213949593382
O           2.30890976738627    1.19230585651134    0.24952048376654
H           2.99429508155700    1.68774237787447    0.69980228378950
O          -0.92568886233372    0.27750441844735    2.66117744431517
H          -1.41400402974477    0.54442350970576    3.44113336039199
O          -0.35103786953131    1.75169766917367    0.44172185423387
H          -0.57874734719229    1.31977732434649    1.28834344064157
H           0.61273827491115    1.62896267085871    0.33157323467400
H          -1.09867223803359    0.90938498752005   -0.56870814989491
O           1.51095093223325   -0.81833159753713    1.71314294133112
H           1.04288501226200   -1.24183956082979    0.97488137980569
H           2.13031884466451    0.38694224856161    0.81056667158018
H           0.80613192397265   -0.47093910042488    2.27946643296348
O          -2.08109824702104   -1.77325243105982    1.40214880128336
H          -2.84351434204725   -1.90006512450829    0.83128720905499
H          -1.42792322667022   -0.46736767691850    2.25864728806664
H          -1.31977146933475   -1.85034590492634    0.80173458604250
N           1.27230148555332    0.86833514920461   -2.46563031658564
H           0.34691888291568   -0.30090344670544   -2.68241685879426
H           1.97789519821308    0.92287924002810   -3.18850526190788
H           0.71432958456079    1.71274984223605   -2.49012620135790
H           1.73663984867480    0.82152934518532   -1.56053996816369
