    26
        -50.45479404  Gyration_radius:  2.47185911702 Dipole_moment: 5.887
 S          -0.17151032548263    1.39253920395106    1.56770138742174
O          -1.18571530749643    2.04358123371691    2.32066987064231
O          -0.36772791694223   -0.03219717231870    1.36702553707439
O          -0.06342193402300    2.05995871516193    0.17611474060792
O           1.20383047067955    1.61803341447555    2.19625872685303
O          -2.25427162060827   -0.72719216540800   -1.54898195207155
H          -2.97532965694133   -0.72468072206134   -2.17995556505422
O           1.74262011106943   -1.65648108253218   -1.01917619586094
H           2.06356417465525   -2.32840137804991   -1.62204078055950
O          -2.94630799020956    0.38908883145051    0.77516253595201
H          -3.08388579960075    1.28084385709407    1.10541825435415
H          -2.10191439590212    0.11633805382072    1.17334025751315
H          -2.59339549230028   -0.28814475299190   -0.73576096935306
O          -0.54855539134044   -2.36377571336103    0.01613288761984
H          -0.51098968028280   -1.68054864504260    0.70552756934988
H          -1.22656410648576   -2.04932552228519   -0.59998097800448
H           0.92917517329486   -2.03583486362843   -0.58366214804664
O           0.19189207604403    0.45440151237871   -1.77206637432779
H           0.06502516403272    1.40907482177020   -0.60406548803440
H           0.81300528395858   -0.26742396003585   -1.55032292078321
H          -0.69365690503007    0.04218480731974   -1.80382446332692
N           2.79913911185041    0.62958854240680    0.46584058549176
H           2.45871630180795   -0.26395198876860    0.11553909393468
H           2.80959360742008    1.28658581364289   -0.30434433268285
H           1.90141241500399    1.18976431475951    1.53763014954626
H           3.74527265282883    0.50597484453496    0.80182057174472
