    26
        -50.45479399  Gyration_radius:  2.47193621518 Dipole_moment: 5.884
 S          -0.45401707078290    1.72884739396810    1.10905140773390
O           0.71286879492078    2.05387542644871    2.04196088074990
O           0.09420269478738    2.04408193746675   -0.30286113903590
O          -0.72566574548048    0.30394078884551    1.17623399975888
O          -1.56705664980397    2.57065956548194    1.37734957858781
O          -1.81057085424438   -1.00562133183116   -1.92958382810221
H          -2.33010757119934   -1.13115269185775   -2.72480882901465
O           1.78649888626927   -1.90180397798018   -0.09263499571699
H           2.19248098518314   -2.70647082546858   -0.41766151516439
O          -2.99559180504649    0.65029266321804   -0.20341445260389
H          -3.13157978866418    1.59862109414441   -0.12984001985707
H          -2.32007406566771    0.45472623092537    0.46846614900908
H          -2.31366011384868   -0.37640135782353   -1.36381905160895
O          -0.75577611659664   -2.27499654021488    0.37539996941466
H          -0.84104728293986   -1.44922829190176    0.87968924176996
H          -1.20877208114633   -2.09556579985511   -0.46173619562750
H           0.85331799166586   -2.14277766132758    0.16502182448614
O           0.70584820463005    0.01591500324685   -1.69896051706929
H           1.17230466332479   -0.65117089737146   -1.15723336291781
H          -0.17360583691353   -0.36506239320227   -1.89020438171842
H           0.36293261309830    1.22306879704262   -0.85325857903847
N           2.61509678708314    0.63703442361142    1.09783658593736
H           2.29821062932940   -0.30298440600532    0.86771269831554
H           2.89612045548022    1.09375816261197    0.23912309064630
H           1.51855299483363    1.46157508182957    1.72036249867498
H           3.41908930172745    0.56683962599921    1.70780895239147
