    26
        -50.45479403  Gyration_radius:  2.47183755064 Dipole_moment: 5.888
 S           0.07969341523456    1.90860438966328    0.88175583250235
O           1.41590970585655    2.56802361565049    0.53944137443458
O          -0.78376519289741    2.82523841350724    1.54026356527073
O          -0.46405433808068    1.29934316540311   -0.31898143343011
O           0.46012322859604    0.77389114096501    1.86222779060657
O          -2.24391306658102   -1.68217649099516    0.37998728047658
H          -2.89042072716034   -2.28080334469946    0.75645919010943
O           1.32351072169585   -1.47002511759870   -1.70489944120374
H           1.50285230149812   -2.24545629251123   -2.23824302421209
O          -2.79334149576607    0.87103597476120    0.93329782972453
H          -2.71867040779557    1.44912894883011    1.69708577159378
H          -2.51693338796870   -0.77410272673763    0.64439012658571
H          -2.08088788852779    1.16713618027684    0.34112456420026
O           0.43482146755007   -1.56128613898364    0.86976767702887
H           0.82885013980708   -1.56462169713624   -0.02507637162651
H           0.47320666233382   -0.16365089547763    1.45038573943245
H          -0.52244823520704   -1.70814686205552    0.73878338249847
O          -1.14316765096456   -0.67593506267429   -2.03103597656887
H          -0.98093295761808    0.18355492064283   -1.60862120738066
H           0.40939288440469   -1.16078177748386   -1.95798934018529
H          -1.66840069886269   -1.16887660239004   -1.38348342857113
N           2.82381262365368    0.61501595886549   -0.30899088938016
H           2.02529323544134    1.80886856727181    0.14419820971341
H           3.67776878949315    0.89479707606390   -0.77354259342144
H           3.06159552813294    0.07152472574518    0.51138832314606
H           2.29010534373080    0.01969994109775   -0.93969296134232
