    26
        -50.45479398  Gyration_radius:  2.47188424867 Dipole_moment: 5.886
 S          -0.32149310175556    2.07824177754107   -0.05374437742494
O           0.95369678981521    2.77538592482906   -0.52858234424738
O          -0.57098058382329    0.92732496265359   -0.90329122801482
O           0.03688049620808    1.55962156271767    1.35907541757522
O          -1.39679770853529    3.00193514636121    0.04622311492469
O          -2.03433449853460   -1.76191777670714    0.87688449365070
H          -2.64966804311003   -2.25776533025195    1.41870824243575
O           1.77278287643674   -1.76699903577179   -0.74311985248714
H           2.14003638406803   -2.64449519823124   -0.85739535750771
O          -3.00091125261598    0.62866907454269    0.18518235747425
H          -3.13240988118816    1.47724130267675    0.61618960653653
H          -2.46544821918554   -0.89829143356070    0.68371525741334
H          -2.24435927417998    0.77836244316835   -0.40735105070638
O           0.48453384575638   -0.93349431784299    1.50914333822158
H           1.02014775387097   -1.23784023050861    0.74983934225102
H           0.24131195053864    0.55740984532957    1.40967500562452
H          -0.40933966565194   -1.30256617636910    1.36823200238724
O          -0.68714024301702   -1.67504550817171   -1.61601602762718
H           0.88139447135735   -1.77541172757340   -1.19103330586804
H          -1.24385826872856   -1.94002972469652   -0.86899295294884
H          -0.71288482870292   -0.70410541636529   -1.60580292923420
N           2.72960881537745    0.95761048580574   -0.28711108357608
H           2.39226786782926    0.06145037656239   -0.63370886997850
H           3.60457607703453    1.17346986861607   -0.74663489952512
H           1.71567763468708    2.05324748629349   -0.48745574347720
H           2.89671060605017    0.86799157895393    0.70737184412654
