    26
        -50.45731614  Gyration_radius:  2.44431864827 Dipole_moment: 6.859
 S          -1.47032916577733    0.39040455563079    1.30042478685961
O          -1.27234376379350    0.18195905708504   -0.15688685862054
O          -0.34085166183388   -0.12488462646798    2.05414100250199
O          -1.73348929281086    1.78955374420231    1.55579086899759
O          -2.73323863381050   -0.44365773962838    1.67331465078190
O           0.96746229610689   -2.61528966547917   -0.63819707345206
H           1.31612924750046   -3.38605316257569   -1.08720357748428
O           1.90448881186492    1.67825234250407   -0.92840522501239
H           2.75064929398874    2.11253571766863   -0.81294116815980
O           1.90890025640368   -0.32413175444001    0.70165146730305
H           1.75788382167554   -1.19064405672976    0.29115013701287
H           1.91529603231204    0.89932751057214   -0.28790448431743
H           1.13934901834698   -0.20149029731488    1.29883333448888
O          -1.13463829927545   -2.55335500465789    1.29483281771422
H          -0.56654648312984   -2.71795702409161    0.52640261175568
H          -0.63911584840180   -1.90654214368407    1.82114963192417
H          -2.44244945309684   -1.36272234917612    1.50364653926609
O           0.32104352059251   -0.54675372532909   -2.18774890080837
H          -0.36864276295453   -0.36221974250610   -1.52329559628884
H           0.98839574515164    0.13732196104889   -2.06252415368965
H           0.71780715527474   -1.96330452327679   -1.33404868631673
N          -0.58646707623573    2.56021451785856   -0.62872112765993
H          -0.97519661625943    3.21257405396319   -1.30045662159163
H           0.45444073964572    2.44897468887512   -0.71406677593371
H          -0.90435613321964    2.73453903118947    0.35011766786717
H          -0.97418072826422    1.55334864475899   -0.70905528713827
