    26
        -50.45567460  Gyration_radius:  2.46073719027 Dipole_moment: 5.086
 S          -0.62279946324122    1.81257298315015    0.33720876734016
O           0.27434699692895    1.90545369537932   -0.91304374843616
O          -1.88901594507700    2.42731211247987    0.07948582148161
O          -0.69757928115756    0.43232140868099    0.74909445825311
O           0.14518899209720    2.61366174438052    1.39244311079737
O          -1.45066666692991   -1.55978134602569   -1.73027067617727
H          -1.78172462244973   -1.76946306879868   -2.60516869728230
O           1.96045754140910   -1.58210915287303    0.61765087406715
H           2.50458252092184   -2.36973320050303    0.57333620539067
O          -3.16903319567341    0.24191773018877   -0.79154046818211
H          -2.77010948477453    1.10723192481391   -0.57326730106990
H          -2.06148729263563   -0.87045869509131   -1.36825724128208
H          -3.52375919516559   -0.08653309119994    0.03766191471546
O          -0.57778374439427   -2.22439785806956    0.86424387568878
H          -0.90563660962096   -2.35736095029949   -0.03590854101805
H           1.03428767309686   -1.89155350910205    0.81183874269728
H          -0.76826715464761   -1.28698153535804    1.04087501503213
O           0.99013768471810   -0.39728813405035   -1.63701540325200
H           0.12348022003686   -0.85121236485182   -1.71544502001316
H           0.58752715292570    0.97505690268403   -1.23731082454886
H           1.42478742259351   -0.79403463174579   -0.85530351732809
N           2.31233690102504    1.25430489914187    1.40021498858557
H           2.07539087629727    0.27273806271307    1.26951743669395
H           1.04953741234362    2.09754066290142    1.48495803760595
H           2.90456972921192    1.33785515459453    2.21621020805838
H           2.83123154217308    1.56294024687045    0.58779200219011
