    26
        -50.45567449  Gyration_radius:  2.46066297333 Dipole_moment: 5.091
 S          -1.36904437707942    1.36867041706644    0.19775764143501
O          -1.07161172751128    2.49384224359217    1.19297560392268
O          -2.76598680209303    1.34291234805256   -0.11136773171568
O          -0.55821575327832    1.76584716847671   -1.05178650801100
O          -0.84447999881527    0.12744566448323    0.71208189886537
O          -0.55290613361158   -2.15050940267911   -1.61323477956282
H          -0.72620064757330   -2.54075706514926   -2.47155342120325
O           2.43361156143329   -0.50804497685895    0.74105650194484
H           3.27044507915201   -0.97465828394292    0.75975279835925
O          -2.92112595640944   -1.23652274081107   -0.81611163965954
H          -3.12164237757882   -1.63066636422873    0.03579974016858
H          -2.95231588995484   -0.27142793467369   -0.66392666369497
H          -1.41753731510018   -1.78028772904975   -1.30526226843060
O           0.43062431085163   -2.18792571102795    1.02636949451271
H           1.73206179769681   -1.18149994879928    0.95472820985439
H          -0.15961028449267   -1.42186861977415    1.13131349660785
H           0.22750415410930   -2.51162203270492    0.13790987652704
O           1.12198261109454   -0.02711865856739   -1.59976096415596
H           0.14325994828784    1.04967611739950   -1.30504344866269
H           1.65896998426001   -0.13824159526351   -0.78947741499850
H           0.54671037160955   -0.82112752958252   -1.64607728012050
N           1.47086409784542    2.23610958391395    1.30931010210413
H           1.69612397017533    1.24482709590689    1.25181684751911
H           1.82881502944658    2.68816774402374    0.47739885300130
H          -0.03625530474319    2.43785365997105    1.32695193290277
H           1.93595965227835    2.62692655022932    2.11837913252258
