    26
        -50.45567426  Gyration_radius:  2.4607522153 Dipole_moment: 5.084
 S          -0.30053840565616    1.74905951927000    0.80335186807884
O           0.54130318723620    2.08238246466460    2.03852003019740
O          -1.41231565794602    2.64496061422155    0.71102275145101
O           0.66785604209768    1.98749815463206   -0.37253142301267
O          -0.65435058639652    0.35126795562845    0.83229183625585
O          -1.59556364833681   -0.74256755157424   -2.10237541926067
H          -1.90110795836982   -0.65019810799748   -3.00633355214523
O           1.58508622069814   -2.04558577496287    0.20625659477926
H           1.97337652725551   -2.88633822169200   -0.04020712299296
O          -3.00708587901841    1.05924160871030   -0.74429455392695
H          -2.47248456833480    1.74155105161537   -0.29261548988947
H          -2.08936415330535   -0.06305059628397   -1.57941386932774
H          -3.47635067541253    0.60339904452117   -0.04188241245181
O          -1.03918677095600   -2.21417556278543    0.23455478996243
H           0.60646826662433   -2.20472370207320    0.29773000280058
H          -1.06323726725534   -1.33641622484645    0.65304927757719
H          -1.32427625635655   -2.04125175627861   -0.67331665768204
O           1.00683278403756   -0.14827815683778   -1.66331475517080
H           0.07900468521114   -0.38759365435215   -1.87550147716197
H           0.83180958627529    1.12783373602849   -0.92228298318081
H           1.30560626946046   -0.81108009678235   -1.00849830796821
N           2.41406665901179    0.37157384730699    1.70416104276965
H           2.00724425342655   -0.47953553091080    1.32101273985963
H           3.02777951510385    0.76915086489196    1.00427409824424
H           1.32650230137192    1.39377410111791    1.99760859137801
H           2.96292550953299    0.12910197475693    2.51873439081827
