    26
        -50.45567442  Gyration_radius:  2.46093943134 Dipole_moment: 5.084
 S          -0.27112321916831    1.28272133864309    1.43954953550522
O          -0.41839209244118    1.03102134648180    0.02709004466959
O          -1.46764270081227    1.71079938021727    2.09729722421400
O           0.27388996998749    0.00736664768119    2.11274009521154
O           0.84373648404525    2.30992068200600    1.65609834250699
O          -2.03616066693829   -1.74944355321573   -0.56844691892202
H          -2.60372412640814   -2.48863339259978   -0.34371968842070
O           1.82464481903891   -0.75292380012015   -1.68295566901687
H           2.22942031875648   -1.30143175296490   -2.35646860289689
O          -3.20358962200966    0.34793042364347    0.57999041429543
H          -2.43736897754473   -0.95791788157089   -0.13053589458605
H          -2.65104156480492    0.81094474618122    1.24016030778866
H          -3.38301219302828    1.00199880207115   -0.09926174797286
O           0.48000225044900   -1.84610790420482    0.42083504719718
H           1.04230649444432   -1.48828036171831   -0.29547779620330
H           0.37300583422932   -0.77443908064499    1.44384039562853
H          -0.43014077988921   -1.87000732698437    0.05442936286255
O          -0.62927628334304   -0.10484667327856   -2.37103293124735
H          -1.18955520262472   -0.83151779925976   -2.06528131476264
H          -0.64187974625838    0.52224713543746   -1.62754148301596
H           0.94559295385590   -0.46193377291052   -2.04905322116841
N           2.73975975456851    1.08227731884377    0.45505502249323
H           3.52392731184421    1.64193856738331    0.14615642606011
H           2.34865168975670    0.59777742831090   -0.35054952753535
H           3.07393404464096    0.38555786557999    1.10886604632862
H           1.66403527965186    1.89498159699177    1.15821651099009
