    26
        -50.45489321  Gyration_radius:  2.43229218517 Dipole_moment: 9.413
 S          -0.81356133497362    1.21678456250616   -1.62035320861243
O           0.57709522716601    0.84988587865806   -1.85476742966588
O          -1.38699888438073    2.17132444622577   -2.49903705229287
O          -1.59491969078295   -0.04675615328715   -1.49663741331075
O          -0.86238091798550    1.85084191262637   -0.16224858201887
O          -1.15158788837358   -1.80368690530960    1.71366107098243
H          -1.57024360982385   -2.42501830872085    2.31007074960657
O           2.56379336859803   -0.53062866285533    0.13300672016840
H           3.39916386707374   -0.89523691738193   -0.16146915433465
O          -2.87127435457963   -0.08156687619840    0.78030079677050
H          -2.73964723694020    0.81692589633382    1.09510870266275
H          -2.55571511837123   -0.06710612181271   -0.15475211108544
H          -1.87580683924573   -1.18863782518962    1.39660371929551
O           0.45040371794513    0.45305081445544    1.68394722147043
H           1.31357549038840    0.12419701145413    1.40291352442206
H          -0.33467906320439    1.32462354026638    0.48268770477176
H          -0.07312473150284   -0.32632802719440    1.92448652035689
O           2.41206995319638    2.01261068036448   -0.48036281055281
H           1.93901368890421    2.56448594117468    0.14635893147094
H           2.59336945960793    0.43612273560974   -0.11324075382070
H           1.73829937963981    1.72612391442784   -1.14694409879532
N           0.18708470537149   -1.65889762028061   -0.67525496733987
H          -0.54635278984085   -0.96615610660375   -1.11773048106603
H           1.08971524600081   -1.15300956924571   -0.52988487542325
H          -0.20890716560676   -1.95156655433915    0.23619794966916
H           0.32161550171322   -2.45238165566805   -1.29266067332028
