    26
        -50.45289448  Gyration_radius:  2.64832903828 Dipole_moment: 2.981
 S           0.48910035693038   -0.38776252678537    0.52396698363903
O          -1.03902732849569   -0.52310005079024    0.67014170172199
O           0.96364766975526    0.63414383290373    1.40790198401938
O           1.07950343836273   -1.69377310156521    0.68920826948315
O           0.69134480101163    0.07560038588255   -0.91478640034928
O          -0.92669645535246   -3.07330945811514   -0.49222925497798
H          -1.68459327852086   -2.56555405283427   -0.19136484094635
H          -0.19327112311145   -2.81215322948177    0.09058318540076
O           2.70398487867751   -2.65439697393929   -1.26248079829587
H           3.56767372355088   -2.24400674800949   -1.20357379402237
H           2.22952039025417   -2.42713257634344   -0.44260251409428
O          -2.18616836214896    3.16726778270208    1.02289085011587
H          -2.86960272589578    2.98431186527499    0.37652629381287
H          -1.32087682446216    3.18083577258820    0.52984380066686
O          -1.51869603872605    1.09808932688878    2.49841420753018
H          -1.86479713354948    1.91677808066894    2.04873076974266
H          -1.33682989202606    0.11703211500983    1.43880218703540
H          -0.58224755711151    1.26384859607318    2.66652315567929
O           0.42529615211894   -1.86896141512969   -2.43117118918669
H          -0.18999564189974   -2.43749273126506   -1.90857279779210
H           0.55127794719711   -0.72576854173665   -1.61446293586453
H           1.30904754192336   -2.27204436369702   -2.30032620876127
N           0.17080155702921    2.89370900363983   -0.21017338549004
H           0.13290735830797    2.47683762442733   -1.13298703373502
H           0.59446748830916    2.19424735423599    0.39694678427487
H           0.80422903787257    3.68275403940459   -0.25574902962509
