    26
        -50.45489341  Gyration_radius:  2.43234913834 Dipole_moment: 9.418
 S           0.18394938877714    1.80885896497237    1.20971365955515
O           1.10474376794346    1.80889457684751    0.08024812603263
O           0.06619618786590    3.01458206876824    1.94760450962097
O          -1.25496375774633    1.50102155870093    0.60512149687966
O           0.49570518125238    0.61150573421898    2.04110837832097
O          -0.69034382329077   -2.57854658443589    0.62529744535063
H          -0.93982237261388   -3.47292971361820    0.85947885822585
O           1.20053308975846   -0.19959108654865   -2.32146086519532
H           1.94352319950975   -0.23333967460488   -2.92511703590670
O          -1.30792379045546   -0.52319130132374   -1.12273094061287
H          -0.58037480301213   -0.52924682470572   -1.75753737082124
H          -1.25191420659310   -1.35928935100672   -0.63584366294953
H          -1.22542127555317    0.77075011486259   -0.05607154260168
O          -1.64633161595447   -0.85243773716354    2.32846151841535
H          -0.84830727905284   -0.27622637243566    2.40079075655334
H          -2.32826210123888   -0.27913352170378    1.96792325377922
H          -1.08672952908594   -1.98436156977990    1.32755685542781
O           0.16667655196486    2.20797898807772   -2.27974465238415
H           0.85156139531964    0.73361409359518   -2.38009985966781
H          -0.78501823841040    2.25033284038075   -2.16294035443114
H           0.55085675563343    2.26728413479134   -1.36907558203034
N           1.49573739384523   -0.95375151037969    0.30933369628939
H           0.83890389299106   -1.75360664370929    0.35619534862989
H           1.45918420510616   -0.51287407820777   -0.63717154170561
H           1.14425288298532   -0.22677387983149    1.05863348697627
H           2.44358889005579   -1.23952321577270    0.53032601825363
