    26
        -50.45489350  Gyration_radius:  2.43255346626 Dipole_moment: 9.421
 S          -0.97981306871388   -1.40183415306135    1.35926548034871
O           0.43096271618796   -1.71497739785325    1.17155148841919
O          -1.60128887592395   -1.27693698256147   -0.09975890516062
O          -1.76576815860373   -2.35442296080293    2.05701909979908
O          -1.06157707911710   -0.01968539868821    1.91171410098366
O          -0.43256087782472    2.65306235600821   -0.54820403901643
H          -0.60079513039517    3.57817406927447   -0.72949957489702
O           2.42085479409424   -0.45312022463069   -0.89248289148411
H           3.36771190730367   -0.58638798416653   -0.83492464731589
O           1.18186137688775   -2.75625834793771   -1.05565239459956
H           0.86915496833066   -2.55929556895293   -0.13699196760561
H           0.39259548916627   -2.76645301356706   -1.60166565709190
H           2.02723781687682   -1.36676139292343   -0.97411873003435
O          -0.15250349356025    0.19054015352437   -1.78311715616470
H           0.79717570072012    0.01914627032960   -1.74962062115775
H          -1.01825583711210   -0.75779911727799   -0.70123590345631
H          -0.26755616712838    1.12934861208262   -1.57204181135147
O          -2.56104247528693    1.46614535644455    0.37628925538119
H          -2.12367190805265    0.93248146111992    1.08202126121324
H          -1.29005905281956    2.27705807382389   -0.19249237632522
H          -2.94097080836918    0.81552479102558   -0.22039346120862
N           1.08822954346445    1.00239439612381    1.02646048254029
H           1.58819730525742    0.31598946028510    0.41777151352740
H           0.20919951467781    0.51241197415679    1.47421034042468
H           1.70251968222400    1.33729755310654    1.76088579800415
H           0.72016210770897    1.78435803510004    0.45501130623932
