    26
        -50.45489325  Gyration_radius:  2.43237585285 Dipole_moment: 9.415
 S           0.88264297895611    0.93277018354865   -1.76662531976497
O          -0.25566294118477    0.08757542239218   -2.10341725469676
O           1.85071309571284    0.03507500242889   -0.87913813512176
O           1.66056231171561    1.42847402345312   -2.84418630699103
O           0.39671223733153    1.98474922229632   -0.82895290594956
O          -1.80992042764312   -1.88209837866741   -0.22944049244232
H          -2.65171323691184   -2.26177288469537   -0.48390010406726
O          -0.19414314101589    0.80600792406152    2.61355395921693
H          -0.24679271152080    1.09874880932142    3.52379811412742
O           0.02743186264585   -2.46572030468043   -2.00451721031764
H          -1.16480421789213   -2.16654773256708   -0.93593886511704
H          -0.01979445894417   -1.50675725133726   -2.24657062700195
H           0.91210582755939   -2.60249453022744   -1.65839263030378
O           1.80090956984547    1.93260020905371    1.37075688316918
H           1.34193251097446    2.11860533902082    0.51699998827029
H           0.58555213713961    1.28763994458948    2.20934397611618
H           2.51197113278213    1.32930199754921    1.13805131864137
O           0.61894518343008   -1.32709721758722    1.04812062490412
H           0.39378600883370   -0.72294999902109    1.77172268734782
H          -0.20712183103313   -1.74828741550439    0.77897187011317
H           1.35264985975436   -0.48021683601193   -0.20263996563068
N          -1.58457951276170    0.81841800584102    0.25004887621189
H          -1.29988033989639    0.81561754236363    1.24616002251256
H          -0.77978644188212    1.33617621647424   -0.29528344530744
H          -1.66198266901634   -0.16135546506301   -0.10484696908588
H          -2.45973279696296    1.31353817297410    0.11632191118090
