    26
        -50.45426019  Gyration_radius:  2.48275044234 Dipole_moment: 9.493
 S           0.14399642271725    2.06504292006691    0.47739894564339
O           1.50512467782203    1.59486918412035    0.06823832082448
O           0.12607001478098    3.41051461303449    0.93278734283590
O          -0.71180244872985    1.97624705654384   -0.84665445123180
O          -0.40213156654748    1.06340313958031    1.38557490107529
O          -1.09584745348431   -1.88685127196252    1.37243501088684
H          -1.59962355718229   -2.70071576441960    1.41478413256135
O           1.08377229339517   -1.36743531379324   -2.12701543896271
H           1.44164941174248   -1.87693338599671   -2.85457330986182
O          -2.35927260722268    0.01367997544960    2.71171018180661
H          -2.19600155774291    0.21493709432584    3.63462445105601
H          -1.75084603426039    0.59939382077155    2.20414048210230
H          -1.58534661569860   -1.22618007214338    1.92514700077711
O          -1.38049434465818   -0.55807444947071   -1.06699076360311
H          -1.39100934586423   -0.96465556909838   -0.18351067181322
H          -1.05096654537879    1.04872691973278   -0.90399502043292
H          -0.65192332797220   -0.97177302421907   -1.55271625493790
O           1.44122725679367    1.18117593987498   -2.51906843554611
H           1.60415580394792    1.44979661689236   -1.58380529763439
H           1.24900983702410   -0.40397362064489   -2.35152894082116
H           0.62391026753275    1.63178617169946   -2.75218406135964
N           1.40099689581960   -0.88810077742246    0.53694133066883
H           1.39268234910376   -1.29030580416642   -0.41887767337141
H           1.47244697648797    0.21622443986553    0.40813403400007
H           0.50667966662168   -1.09635436204690    1.00804969091865
H           2.18354353095166   -1.23444447657401    1.08095447441987
