    26
        -50.45426022  Gyration_radius:  2.48283506034 Dipole_moment: 9.493
 S           0.36832853916104    1.75089643602733    1.14586052046285
O           0.43981490832902    2.96083282044958    1.88681163526878
O          -0.96764510188484    1.24855068591409    0.84737703002447
O           1.07791457282817    1.97720242167297   -0.24648756446559
O           1.13365637272282    0.62614937144997    1.77069434257100
O          -2.26244091661045   -0.94476558181887   -0.79592638524601
H          -2.79149594246085   -1.38847394007378   -1.46012851395877
O           1.77605296936125   -1.92234733460536   -0.84937230021009
H           2.36376109561209   -2.60931433238080   -1.16500867410859
O          -3.27492818376796    1.45009610020631   -0.30466956400434
H          -3.90774654195663    1.62878311752379    0.39288931842050
H          -2.38942465143902    1.60161103951409    0.09990087557729
H          -2.70892309911953   -0.07876835063080   -0.61593472535594
O           3.12806910591645    0.05558833641698    0.16891841572830
H           2.50772205194918    0.29446290906078    0.89803156737758
H           2.36388824583991   -1.19706368268153   -0.48290662942150
H           3.12662603764015    0.82990113143960   -0.40186019394794
O           0.11005227716302    0.10876818378433   -1.82477020091013
H           0.66397524993175    1.34255830608596   -0.88247799982724
H           0.68699361598919   -0.65820809492402   -1.69538480085742
H          -0.77238462177953   -0.15143179616118   -1.50928246114565
N          -0.15189301085052   -1.41388039330967    1.00840868917296
H          -1.00054186516173   -1.10104341374950    0.51138056304183
H           0.50637249946715   -1.84723157624996    0.33436624264949
H           0.36393406341913   -0.51142887799009    1.40932879539390
H          -0.38973765029977   -2.05144346496922    1.76024198777047
