    26
        -50.45426021  Gyration_radius:  2.48282449474 Dipole_moment: 9.493
 S          -1.20063103037713    1.37798465313112    1.08350174231513
O           0.25572643208470    1.35049300205895    1.15069478890530
O          -1.57414853997312    1.48460949312947   -0.36229327631866
O          -1.69092206940760   -0.06226403654139    1.50606269779665
O          -1.85522867812930    2.33330739385503    1.90628962837171
O          -0.73228115269811   -1.73411233265189   -2.00653550785998
H          -0.94912322916149   -2.35257987180541   -2.70473596656575
O           2.55257928200606   -0.33910383483549    0.12179773898016
H           3.31695329640953   -0.91651096262831    0.10359916198543
O          -2.89088545564697   -0.69266961568967   -0.99015316120380
H          -2.54448381549503    0.21414274430786   -0.81356942149949
H          -1.60620958599525   -1.38423719199631   -1.66056731394767
H          -3.08699348540288   -1.04207657752752   -0.11562405636358
O           0.17378891865944   -1.70521596043728    0.64483196601607
H           1.01980858016762   -1.22866493372298    0.58958263672297
H          -0.96291287194337   -0.68997871032761    1.27231525348089
H          -0.07980841465844   -1.92429238956119   -0.26377792895387
O           2.47282151572356    0.96067134817108    2.42521436135399
H           2.59653766282746    0.15536708120591    0.97926029005456
H           2.85853997861581    1.82745553513830    2.56255108536316
H           1.54108423258534    1.12887559963337    2.15252679639628
N           0.50343119681356    0.64922968780325   -1.53763485159073
H           0.18743165452744   -0.26261492373915   -1.91726185948208
H           0.83286278779298    1.26544391593218   -2.27253433983715
H          -0.37851707168862    1.09282610212623   -1.02131596788661
H           1.24057988236345    0.49391479497081   -0.83222449623455
