    26
        -50.45352274  Gyration_radius:  2.59998493184 Dipole_moment: 4.459
 S          -0.81018677001266    0.07923499541825   -0.52751646877236
O           0.44212068111144    0.61990157275670   -1.02963069837536
O          -1.85660662164196    0.11010012432287   -1.65745075836837
O          -0.65870279845903   -1.29878158932867   -0.06711762757977
O          -1.35912307494530    0.91739024859542    0.55268019282229
O           1.44595829398141    2.29535442116877    2.52173997045500
H           1.20368670591449    2.58369781187509    1.59280604642267
H           1.43648946174303    3.08608619998351    3.06420403751996
O           0.48812136165926    2.93909240697620    0.18943806650838
H          -0.46257048601115    2.91594045526762    0.34383976399371
H           0.64590547046741    2.13746231691370   -0.35683700942100
O           0.39501680164846   -1.71405493016379    2.24360276056146
H          -0.09503697881338   -2.44765522702598    2.62098521742912
H           0.06749440438148   -1.61742654252259    1.30611109419471
O          -0.41567462880781    0.61224640560703    2.81426819554485
H          -0.90073882218074    0.75416110978628    1.87348235218026
H          -0.02625611089672   -0.33818032481489    2.72544403217542
H           0.38059808709870    1.27765527383876    2.78937698628985
O          -0.14311854512179   -0.28403207926503   -3.49587672244367
H          -1.31566715540965   -0.03851502045498   -2.49866369317449
H           0.46186304305316    0.19547312374049   -2.91054106991429
H           0.03677620570539   -1.24075372394313   -3.31529031369434
N           0.25046166660272   -2.69974246703861   -2.39723315771075
H          -0.06556115925256   -2.30790227681766   -1.50917429297742
H           1.19353044921530   -3.04207897896476   -2.26241778330624
H          -0.33877949104468   -3.49467331591904   -2.61022913034553
