    26
        -50.45426023  Gyration_radius:  2.48270612094 Dipole_moment: 9.494
 S           0.03091957051906    1.21454453224160    1.74270803881944
O          -0.10808504419977   -0.27603140083666    2.24492731848089
O           1.39292773553535    1.26900668814137    1.12373535561355
O          -0.93808095728637    1.37530843776525    0.66498906804532
O          -0.11496531160283    2.07913522779260    2.86038908983034
O          -1.72609591126481   -0.00783005395126   -1.91441307144787
H          -2.24026118266489   -0.47986316198420   -2.57076745885077
O           1.86805077348174   -1.81811960486313   -0.87916002441219
H           2.49284123134058   -2.46111628487764   -1.21560847058903
O          -3.34927693633350    1.27587391902092   -0.26553395511861
H          -2.37567084283378    0.49000039205913   -1.35591144489942
H          -2.53862516614783    1.32268916384487    0.29270694138235
H          -3.62635867393761    2.18518534884696   -0.38935585455557
O           2.52434878761098   -1.06096203382767    1.52351096782332
H           2.24602922097782   -0.11661161842705    1.45829160464100
H           1.94095726641958   -1.43035646311381    2.19328709212426
H           2.17841196246399   -1.58269656551511    0.04510288793672
O          -0.75030186750422   -1.66796181635164    0.10741005183249
H          -1.19921662444214   -1.08700687215136   -0.53050463026064
H           0.09386090116143   -1.91962787961607   -0.29501725654324
H          -0.43723711678696   -0.80526093101118    1.47671691171339
N           0.92737012509922    0.70511367540670   -1.29721284551289
H           1.34368928029454   -0.24066208207734   -1.38453874381969
H           1.34008945353323    1.35702429250803   -1.95522375747484
H          -0.09438512905405    0.64746232709568   -1.43078933111196
H           1.11906445562006    1.03276277387988   -0.24973846364759
