    26
        -50.45731620  Gyration_radius:  2.44447337509 Dipole_moment: 6.851
 S          -0.44523931740516    1.32648729204581    1.43008642427104
O          -0.03396841176157    1.29388151116910    0.00302806508722
O          -0.96752658848997    0.03675238343559    1.84650507903617
O           0.66345188330327    1.77971152794521    2.24079782750043
O          -1.59759883822717    2.37312494340256    1.50814382889400
O          -1.91785165416928   -1.28702601289141   -1.69069955377724
H          -2.37403047102952   -1.68560485490973   -2.43250293711670
O           2.25766680608868   -1.46191874254788   -0.28185186581716
H           2.77691013069130   -2.23189738331413   -0.04652555925582
O          -3.02781821982502    0.51527306164446    0.22439816357714
H          -2.54647894579322    0.06621103923952    0.93679497192051
H          -2.30119764962818    1.95928233943326    0.96783451301172
H          -2.76533397243204    0.03606359931606   -0.57687302796744
O          -0.17139520443361   -2.01293815244995    0.39916726589854
H          -0.44643055896764   -1.32053708057680    1.03859596949105
H          -0.82602193959545   -1.95370627815884   -0.31485855635357
H           1.31218069417449   -1.68583601993541   -0.01222466140319
O           0.40978566029305   -0.11175193833518   -2.23746545808436
H          -1.11356532670196   -0.84446694237106   -2.04957128210911
H           0.18220588857490    0.50364625302313   -1.51578295239996
H           1.11432202397345   -0.66880343773921   -1.88786601351239
N           2.42907432381420    1.07782571864508    0.48709075365698
H           2.57343447161006    0.05347413792749    0.30455355325188
H           1.47265549264913    1.30178005656289    0.03285804384418
H           2.14847011017887    1.28630765228389    1.47032787694220
H           3.19429961311753    1.65466532715092    0.15603951141419
