    26
        -50.45444078  Gyration_radius:  2.55201780456 Dipole_moment: 4.682
 S           0.49994601163940    0.93007067731603    0.95034201762445
O          -0.27210494754961    0.00110559241747    1.72501442785630
O           1.78474137722283    0.42391847241380    0.52144140942351
O          -0.28533502201196    1.40053051410936   -0.26970897063622
O           0.69461284569490    2.22524614990451    1.74902259402336
O          -3.19060229476748   -0.23044124490397   -1.38274778346539
H          -3.39362323756758    0.65679061540639   -1.08224329843361
O          -0.12926944046537   -2.68777112279186   -0.69350497997288
H           0.18010249143739   -3.45199549083518   -1.18195204175685
O          -0.63506153770897   -0.36120224524497   -1.96521023053788
H          -0.38877807011212    0.63780680832473   -1.03365050803777
H          -0.39443220686797   -1.22267919962040   -1.55732756697368
H          -1.62978690811447   -0.33900306011970   -1.95556098339274
O          -2.28481093996843   -1.56457533773881    0.73147624595146
H          -1.68836442663974   -0.96923279986456    1.21526501382039
H          -3.02837862648233   -0.76483201293457   -0.56777962226880
H          -1.70385565827077   -2.19715981777127    0.28623852455372
O           1.50774007539230   -2.11826249162166    1.28441707133927
H           0.89320469250446   -1.90327834257479    1.99390345431481
H           0.52656480058535   -2.53437286650661    0.03726497757985
H           1.82410760983553   -1.24870576229426    0.97350542878993
N           2.29704071968577    3.15240092793429   -0.02380246805647
H           1.80212414661160    3.49460234079533   -0.83672221557558
H           1.32266425965651    2.77197493424564    1.15449643807209
H           2.56461313942541    2.18610281513897   -0.19006819780630
H           3.12694111672172    3.71296193682169    0.11789126348527
