    26
        -50.45444100  Gyration_radius:  2.55418316997 Dipole_moment: 4.678
 S           1.06472230316798    0.07727987390108    0.93499040845193
O           0.90972068157822    1.13244213944941   -0.15564693784565
O          -0.12635753789885   -0.01112775157561    1.73044895622744
O           1.47167270947832   -1.17247471227882    0.33229453685009
O           2.21003077718922    0.63719423794179    1.78823418625548
O          -2.23729607827444    2.48483906297999   -1.00133353772947
H          -1.67608752794547    3.16236348273526   -0.62085479621433
O          -2.18364568474826   -1.49649660129901   -0.84393076074230
H          -2.59258073713682   -2.14992750151098   -1.41326622659731
O          -0.65835282864066   -2.65302841179288    0.95984818375893
H          -0.86179677388104   -2.13831094040675    1.74779463970863
H          -1.63161866044742   -1.99857846062329   -0.18760041029237
H           0.20831360711440   -2.30999086699109    0.66991036219505
O          -2.64321279750421    0.66925406651792    0.89786206301122
H          -2.77610896618141   -0.11397522869453    0.34568666849741
H          -1.79033466664400    0.52546398754451    1.34066175576195
H          -2.52767659316367    1.91496891669280   -0.24828623857207
O          -0.73608358814396    0.52599784735659   -1.89520230449381
H           0.22607613007625    0.83804044209719   -0.94379820490577
H          -1.23968969344084   -0.25482676585532   -1.57462999606045
H          -1.34636798978322    1.30043198368862   -1.76162761446264
N           3.90183268561402    0.21335706312978   -0.09051967442355
H           3.31614316249047   -0.57666271301849   -0.34718885876719
H           3.83882898933341    0.91177912248198   -0.81932783025292
H           3.01720949761101    0.57364612448653    1.16317270568827
H           4.86265956017788   -0.09165840697511   -0.00769104504378
