    26
        -50.45444075  Gyration_radius:  2.55200299208 Dipole_moment: 4.680
 S           0.37243275306942    0.28113329029347    1.34217754614076
O           1.28701689088618   -0.52567045103276    0.42615629773604
O           1.09082696308560    0.20143011893708    2.69523330728473
O           0.33774216499206    1.65368558981013    0.88863885454627
O          -0.91741019231195   -0.33885454479984    1.44744046335677
O           0.07406419615720   -3.03357572418449   -1.71372910285167
H           0.64603964071781   -3.40863560687895   -1.04224533182414
O          -1.94554611788736    0.39480274427021   -1.94481249395697
H          -2.30257924228557    0.85908056905455   -2.70330699913679
O          -2.01362822315465   -1.98733780027722   -0.44214211717722
H          -1.67390182484145   -1.53084000659989    0.34552659343307
H          -2.24397746379478   -1.28222171234339   -1.06317216221915
H          -0.77334562143421   -2.81014402446654   -1.25758951565663
O           0.60961073627250   -0.47523884323167   -1.94851610934379
H          -0.29708276340563   -0.09808915657472   -1.99435015809436
H           1.01548929404932   -0.45550024815340   -0.62143415118500
H           0.48767033067023   -1.45670089527929   -2.05774890145218
O          -2.24765266907035    1.81592892137145    0.24729420304308
H          -1.30751031894940    1.98025055760551    0.45222453634626
H          -2.09881254933208    0.98036242215433   -1.15657028873322
H          -2.51143739877620    1.14341393230462    0.88400260566125
N           3.00279291103495    1.67809914599214    1.83838619041465
H           2.30405120432045    2.12542421118001    1.25134565756131
H           3.64002359571748    1.16272401439567    1.24576609695483
H           3.52046739727648    2.38412684666803    2.34488423334482
H           1.94465629697688    0.74234665979407    2.53654075577932
