    26
        -50.45731618  Gyration_radius:  2.44437810958 Dipole_moment: 6.863
 S          -0.46804562607849    1.30074972571392    1.44837017396246
O           0.03509389460639    1.29301216886031    0.05052373257425
O          -1.08576296634278    0.02920663631119    1.78177798444231
O           0.60708602986197    1.66346215269376    2.34501773066953
O          -1.56513548096021    2.40723623553771    1.49017609305383
O          -1.86532811821652   -1.12055357130732   -1.85702175004943
H          -2.29042099919673   -1.46944416218577   -2.64118531900669
O           2.18780104555108   -1.57537731811562   -0.19495651176384
H           2.64847790188976   -2.38265524461926    0.03746432416745
O          -3.00329660350053    0.67618920144299    0.04749272745207
H          -2.59474905111259    0.17767764917629    0.77241686307465
H          -2.25188642920579    2.05187233931335    0.88987846187096
H          -2.71425936251453    0.21005238308465   -0.75229296242100
O          -0.30579613553165   -2.01211329791613    0.31356952071056
H          -0.58514606524738   -1.32747808580668    0.95942175680137
H          -0.90718517942812   -1.89182066791550   -0.43863592286129
H           1.21644264722332   -1.75508362227191    0.00794810355634
O           0.55142961332168   -0.05668417890690   -2.20866017189871
H          -1.01671105032493   -0.71062520871156   -2.14621605803005
H           0.30926277301243    0.54549789091644   -1.48065108643647
H           1.20036473178272   -0.66366073859299   -1.83515073406073
N           2.44513315368447    0.92139730893779    0.68348331534033
H           2.54657471872479   -0.10216297802615    0.47104900061889
H           1.53307132415585    1.21387109068442    0.17886274587570
H           2.11350519285441    1.11114017197432    1.65427337132827
H           3.25948003099852    1.46629415971961    0.42304461102722
