    26
        -50.45444088  Gyration_radius:  2.55246724365 Dipole_moment: 4.678
 S           1.22395763970770    0.71518865222367    0.09184002494853
O           2.52326935735807    1.30027987635082    0.65985137532984
O           0.87914452689329   -0.37947848380023    1.09657859757575
O           0.20872581572851    1.72917761048244    0.07594918619769
O           1.48303901246416    0.11226019670998   -1.19659961556571
O          -2.33168918129792   -0.70024186747614    2.49479784630886
H          -1.69079651177927   -0.47418398360040    3.17074445022786
O          -2.33337557246696   -0.32647144742758   -1.47334638949536
H          -2.85724833451011   -0.77018142873732   -2.14198261568171
O          -1.07159506553631   -1.74699021244289    0.44419600775687
H           0.05595599223820   -1.00981870292124    0.77896737047447
H          -1.63016110376898   -1.54701608108257    1.24295441632096
H          -1.52103278254415   -1.29248042372386   -0.30264524097675
O          -0.51341943304136    1.21422422338144   -2.58276044628565
H           0.28765829067970    0.74593673519510   -2.27968608152357
H          -1.67591133617270    0.23942874770702   -1.95821571390631
H          -0.55163236139080    1.99764702743987   -2.02410093836466
O          -2.40339732254242    1.34302662522906    0.79491092887568
H          -2.48382768701213    0.12596390335258    1.97484712589653
H          -1.48572867471477    1.62592875295495    0.64630511637330
H          -2.65648508715441    0.87283062879648   -0.01180578673618
N           3.80754655884267   -0.84642547988904    0.10049479011697
H           4.76090404568872   -0.93670365447834   -0.22519915112248
H           3.61416913996576   -1.58399427508346    0.76498690949630
H           3.19193621397627    0.53468920617128    0.54409224155720
H           3.16999386042101   -0.94259614526339   -0.68517441785229
