    26
        -50.45444094  Gyration_radius:  2.55252206951 Dipole_moment: 4.681
 S           0.46065011763292    0.10724054418998    1.33946972798796
O           0.25252309503929    1.46230485517164    0.91566521101548
O           1.38937808268836    0.08940622190455    2.56027276522161
O          -0.75496771994670   -0.61541801786530    1.64095398497483
O           1.25879157517495   -0.66882213853003    0.29675406289914
O          -2.05259898525781    0.65620509307631   -1.75438942327041
H          -2.86524398179851    0.45322842882494   -2.21996530164525
O           1.73985386356796    0.53068848113721   -2.97430130990369
H           2.57448148371760    0.48679767651723   -2.50504356245868
O          -2.53233519385571    1.17842444123072    0.77813583094099
H          -2.30619039312165    0.84884174385343   -0.81300321755589
H          -2.06456554793248    0.42197600118759    1.18044508227988
H          -1.94823819847751    1.92686697744050    0.93922039319290
O           0.02172939066539   -1.07058143714923   -1.80302957963514
H           0.65832691835521   -0.60318866788664   -2.40828685457409
H           0.69223948172979   -0.88838074260071   -0.60138243974862
H          -0.78220266021103   -0.50497091849162   -1.79123187882975
O           0.23187789163385    2.30334967359937   -1.68861182029808
H           1.25891879980284    1.31063507415682   -2.60485334109188
H          -0.64458734372002    1.95051037136971   -1.89656309295060
H           0.34971521445334    2.14538992090460   -0.73710373343589
N           1.03235063084199   -2.42941562315824    2.87386723517559
H           1.39767958156456   -0.89729799625796    2.83072601715583
H           0.10288791944862   -2.27639405816779    2.49222296243171
H           1.56879413801228   -2.97142483890231    2.20948993751396
H           0.96073184998852   -2.94597106555784    3.74054234462187
