    26
        -50.45731610  Gyration_radius:  2.44439086134 Dipole_moment: 6.851
 S          -0.43986318722844    1.33224096277635    1.42619138604371
O           0.03240958307522    1.29208150894139    0.01835395378353
O          -1.04611259756421    0.06754950899199    1.80377310231826
O           0.65331565229367    1.71943903398467    2.29035807265507
O          -1.53904146827440    2.43675021730037    1.46579939590982
O          -1.90419935929166   -1.16596623888600   -1.79054934660283
H          -2.34933564425425   -1.52737447192569   -2.55766861222000
O           2.19032119035494   -1.57512969826235   -0.20059583331364
H           2.65755756539328   -2.37357214096000    0.04886382007433
O          -3.00411322143953    0.66849942837080    0.09723528364121
H          -2.57899197548707    0.18844489808441    0.82491492228604
H          -2.23752765779271    2.06591038761513    0.88888715662668
H          -2.73026515075560    0.18427258431514   -0.69724555127662
O          -0.29242208727038   -2.00408255182686    0.36506525455406
H          -0.56001068330742   -1.30527637032097    1.00078749558605
H          -0.91067267820764   -1.90388431477707   -0.37620136225334
H           1.22315273733068   -1.75168520404528    0.02370256395176
O           0.50336142574348   -0.10861290724739   -2.21923742423084
H          -1.06280752213743   -0.76219562674163   -2.10777970405068
H           0.27544939224930    0.50909291909130   -1.49962278905794
H           1.16172628376623   -0.70585072319544   -1.84680483831563
N           2.45718336705619    0.94345107077025    0.60826250383605
H           2.55670057947029   -0.08506491718662    0.41889855560532
H           1.53496653774203    1.22156639215825    0.11517056656228
H           2.14418631282081    1.15606394153354    1.58074029084922
H           3.26503260570994    1.48333231143660    0.31870112703624
