    26
        -50.45444099  Gyration_radius:  2.55386394652 Dipole_moment: 4.693
 S           0.20603675763562    1.40254388297534   -0.00584767331366
O           0.90233864995004    2.76888912360808    0.03170667351778
O           1.27967251158246    0.46136769979488    0.53085634509327
O          -0.92027682865133    1.40425049321635    0.90095148282072
O          -0.12822211681017    1.07242788267795   -1.36174412047459
O          -1.79430788611961   -2.04061185109975   -0.57976185033172
H          -2.47526065465087   -2.66617846669498   -0.32821301403010
O           2.12414221074852   -2.53864498255361   -1.10903017104881
H           2.86352121410785   -1.92887526951352   -1.12360371829631
O          -2.77376352935156    0.39540046904793   -0.73256205168960
H          -2.27302213884302    0.80594591289574   -0.00212101634527
H          -2.34482968364153    0.73028859646874   -1.52698490717715
H          -2.23139399071819   -1.14921607713655   -0.62500890689644
O           0.49754876753310   -1.86173739580115    0.83652880281761
H           0.91643595134992   -0.54362144838926    0.71341083178946
H          -0.37351484507265   -1.94743412129088    0.38928503456274
H           1.14920041378818   -2.29070956249407    0.21900436151388
O           0.16487398421439   -1.39976236790166   -2.49955565785361
H           0.14231611922021   -0.46199954723112   -2.24619477305797
H           1.47328894857956   -2.19559570327432   -1.76844578135028
H          -0.59817225817947   -1.79886889791961   -2.05856829880835
N           0.86890767626728    2.79270711261782    2.59487401120663
H           0.71801349544976    3.58485049212550    3.20543895142734
H           0.01067147319683    2.25333553269201    2.52057943494814
H           1.00787208302484    2.94881852533082    1.03327026899997
H           1.58792365537625    2.20242996793037    2.99173574196424
