    26
        -50.45444091  Gyration_radius:  2.55403204313 Dipole_moment: 4.694
 S           1.11469607717583    0.53205382186605   -0.69542265894029
O           1.46047901908850    1.06358407782315    0.60415927285555
O           1.25421166121652   -0.89177478716905   -0.80697944152001
O          -0.30307552733945    0.96605631873406   -1.05300922247477
O           1.96208449898911    1.21574473167646   -1.77593911261636
O          -2.95933651993710   -1.33686358887208   -1.28404286103253
H          -2.77542615176964   -0.95116859519960   -2.14202505631806
O          -0.81050478117407   -1.68639212368396    2.05370277708052
H          -1.08305823133605   -1.84938499635208    2.95783078389452
O          -0.78872923667614   -2.69860620164229   -0.57482427209500
H          -0.01971293920002   -2.15152297839678   -0.80594037889664
H          -0.86530920186512   -2.63302286530693    0.38737138891122
H          -2.22939760271779   -1.97972352115995   -1.11064915085534
O           1.77692580942648   -1.23349232961489    1.92487196105140
H           1.75309188801051   -0.30415794126478    1.62714882113298
H           0.17083862137949   -1.53112449141363    2.07734395250305
H           2.02347824728245   -1.72554092149107    1.13468896796129
O          -2.00367898479877    0.23936452893260    0.58456984051328
H          -1.58344939648853   -0.41636572059507    1.18418787060286
H          -1.03730402683705    0.69068365112750   -0.30437690103609
H          -2.55457317279382   -0.30020579679450   -0.04417611116085
N           1.49191085544208    3.53011469233129   -0.77882793598530
H           1.87018136511756    2.20926232669091   -1.54981717809448
H           2.12586541529884    4.31527088455075   -0.71032330477218
H           0.57012546651868    3.87024293310497   -1.01873926611732
H           1.43966683797531    3.05696890210310    0.11921722540342
