    26
        -50.45444099  Gyration_radius:  2.55386751699 Dipole_moment: 4.691
 S           0.48331480439182    1.33232919253663   -0.03173325275028
O           1.15348070568016    0.28316757891984    0.84950206901599
O           1.40825303322906    2.54639751092499    0.12214295188432
O           0.46995913726338    0.91120337342404   -1.40346917868435
O          -0.82183724095210    1.64226636424355    0.50808607344391
O          -1.94820915869790   -1.73878693889529   -0.94853805666410
H          -2.78525289308483   -2.19816228672704   -0.86717143397887
O           1.77691744811630   -2.99115786702690   -0.28877675846267
H           2.60153431038118   -2.53050986603978   -0.12594373204138
O          -2.32741861485935    0.79852915574122   -1.52729143263247
H          -1.97084226087996    1.19508087289077   -0.70971174631723
H          -1.63943012611043    0.95572668458958   -2.18242596266279
H          -2.16382862005872   -0.79494295912741   -1.17292173291611
O          -0.14192171892509   -1.80978948479686    1.05704321349027
H           0.55050487461919   -2.41810477837992    0.68215083368930
H           0.55597137756112   -0.61202269463278    0.98012070129933
H          -0.85690430293719   -1.78938854035559    0.38286237057370
O           0.54740979800376   -1.68922743075950   -2.25411066084293
H           0.64986498285199   -0.73955728604689   -2.07595556760387
H           1.41494766708224   -2.61617886023596   -1.12812996010600
H          -0.37186313989582   -1.89047944330814   -2.02956607565913
N           0.68478833120151    2.87543234934965    2.55937543900410
H           1.13157094750689    2.21623867426258    3.18288718405419
H           0.53946191507318    3.74766512215958    3.05044059258928
H           1.27214422248938    2.82033559875102    1.09836432655759
H          -0.21261547905654    2.49393596852290    2.27276980572217
