    26
        -50.45731604  Gyration_radius:  2.44428193807 Dipole_moment: 6.862
 S          -0.54656616127413    1.92539077516737   -0.01814756036970
O          -1.59957038649089    2.66594413355685   -0.89715436973434
O           0.45730350671722    2.87135215267043    0.41722776553546
O          -1.23967417481184    1.28110471175765    1.08357650570765
O           0.07826290518963    0.91670821625100   -0.91167995508345
O          -1.73145773539188   -2.19827504334585   -0.59432262648976
H          -2.09414690812841   -3.03122290757496   -0.89749196860881
O           2.13468211261759   -1.12388255541399    1.21708461340003
H           2.54219124224059   -1.48265307235110    2.00647865653145
O          -2.96733490512492    0.37401546776950   -0.73223217105528
H          -2.24291888827616    1.95820635421496   -1.10490555224133
H          -2.62675517274957   -0.51728359822733   -0.90486361989551
H          -2.64424454862458    0.58242370870457    0.15833441197040
O          -0.40889075034034   -1.14964481902796    1.65965580765294
H           1.14292094380955   -1.13706692071754    1.39977588990348
H          -0.71892700092507   -0.22256330789256    1.56888352874557
H          -0.93517898810706   -1.64291100792790    1.01011047362709
O           0.74508347161211   -1.63522111577358   -1.39886675290791
H           1.33422673827681   -1.74673685406190   -0.64420115834018
H          -0.84617321601311   -2.09768603584800   -1.01596007697922
H           0.46070310560037   -0.70270267363276   -1.37134926028901
N           2.40648306091636    1.22565923075652    0.00119691522170
H           1.55804288616061    1.01637173003031   -0.63658223365925
H           3.26231612567848    1.43947546780573   -0.49855436604868
H           1.99222681022667    2.05197683869211    0.48624688594571
H           2.48739593721032    0.37922112441870    0.61774022746140
