    26
        -50.45444095  Gyration_radius:  2.55393148267 Dipole_moment: 4.692
 S           0.92178907806193    0.36754429869146    1.01235318043571
O           0.81025868493932    1.67556366771342    0.40601833960647
O           1.60725461411086    0.48793683162567    2.37939953579486
O          -0.47124610222650   -0.13624559170589    1.37603296306782
O           1.61842550750926   -0.59730499194309    0.21056706487481
O          -1.94847296997637   -2.88553606896780   -0.25727351852554
H          -1.78633961609053   -3.09110680726703    0.66477575153696
O          -0.42707622540155   -0.16497919677798   -2.74003743677407
H          -0.76308191057529    0.18321011458871   -3.56718843311088
O           1.76523270487941    1.09585786870291   -2.01772301942056
H           0.39848798533407    0.34741829662271   -2.53156907056356
H           1.43375708738161    1.52046824556694   -1.20371022397809
H           2.31251333143309    0.37136749775091   -1.69707460881711
O           0.42699922180501   -2.47951129428226   -1.38054547788279
H           0.95124210972736   -1.94999010812538   -0.75694701162279
H          -1.06721712485272   -2.91343036438232   -0.70307670834064
H           0.17011517052649   -1.86351699728913   -2.08095755620307
O          -2.00728568185961   -0.27818179412742   -0.55339393666959
H          -2.19170200803518   -1.25385899732438   -0.48953224999380
H          -1.15620645107640   -0.14556552089955    0.53594941802510
H          -1.47340249087225   -0.17169947777517   -1.37175382386706
N           0.11485246270035    2.46808556837533    3.03039229646747
H           0.09971717135282    2.69414277787418    2.03957748711355
H           1.10054952839919    1.25576995065268    2.82696164742434
H           0.37261449962049    3.29024270652053    3.56019544328456
H          -0.81177857676309    2.17331938625596    3.30855995816161
