    26
        -50.45444081  Gyration_radius:  2.55428907857 Dipole_moment: 4.696
 S           1.29065034077852   -0.26173275688388   -0.52330703018138
O           0.17291828310545    0.24269684985820   -1.43034385354230
O           0.90331274984204   -1.47742435431119    0.13326845254293
O           2.42572465960759   -0.55353145357875   -1.51296163428794
O           1.68811632582198    0.79906308984201    0.37539214403005
O          -3.11348711826141   -1.01029664633514   -1.21794597686315
H          -2.72227834435050   -1.23895897660476   -2.06256927972427
O          -1.56141259169322    0.04349960945518    2.29795976672458
H          -1.95684750060501    0.49506020561227    3.04496687301057
O           1.01055200885107   -0.33922438201958    2.69196137017950
H          -0.59868237028277   -0.07368691354658    2.51504260755264
H           1.12927877520200   -1.23456742881734    2.35801335966735
H           1.35915814959927    0.22788978927466    1.97802379641935
O          -1.67471329928881   -2.23836960731457    0.65050016191124
H          -0.74028463586679   -2.13754849726276    0.40399906843750
H          -1.80941847696761   -1.62449520623759    1.38603523645851
H          -2.69211053714376   -1.60504997761126   -0.55098543404947
O          -1.81838144242568    1.03386938360904   -0.20095176313218
H          -1.72710595365378    0.74916277671602    0.73535369763815
H          -0.67620475539769    0.63777836664627   -0.88468206344249
H          -2.46952176848721    0.39796040548955   -0.60285830603473
N           2.75776689026548    1.94541562804068   -1.97818251993947
H           2.05454587912144    2.31592459748253   -2.60358685827303
H           3.62896084081434    2.43508152013528   -2.13403601364337
H           2.45147455036584    2.09443565366477   -1.02057129461874
H           2.68798934104921    0.37704834470042   -1.84753453682854
