    26
        -50.45444097  Gyration_radius:  2.55386207208 Dipole_moment: 4.690
 S           0.55903290174506    1.26226663991483   -0.32276771212127
O          -0.55807373232236    1.55919658827459    0.52756846501188
O           1.51143077222399    2.46435814209558   -0.35548259833810
O           1.42377864984655    0.16237069756855    0.28471221312748
O           0.19694504999697    0.89041169180617   -1.67244917630544
O          -2.30195780289700   -1.55330946064299   -0.06109493964020
H          -2.86745515955220   -2.21369039839647   -0.46408326131798
O           0.29212002739290   -1.84516744734016    2.94925947654995
H           1.03174591293342   -1.30338779139389    3.22880629496858
O          -1.68195153822690   -0.17954079282756    2.31830542299251
H          -2.13911812213643   -0.71633379853645    1.65580904657073
H          -0.48502873990654   -1.23799948569826    2.89003719389887
H          -1.28744479963381    0.55574207353272    1.82047904084317
O           0.32312709256763   -2.04858997331525    0.33265740800035
H           0.95676469288136   -0.81552331970938    0.25431418904150
H           0.35675257878544   -2.17914277569232    1.31850558778848
H          -0.62822601342940   -1.91570639432565    0.12447113931544
O          -2.44897683431925    0.72555697600305   -1.36574471526600
H          -2.46803215326784    1.36409386759583   -0.64525495689043
H          -1.53169578819718    0.76912431587680   -1.69664135576097
H          -2.41075743709609   -0.72267320686220   -0.59573401676906
N           2.93604235963985    1.37308869430128   -2.18624819822140
H           2.20895022181010    2.18967893361768   -1.05159190682255
H           2.07442322007057    0.93469054904903   -2.50000331227053
H           3.39008804317911    1.82409709398374   -2.96951179791021
H           3.54751658794865    0.65638858112473   -1.81831753048025
