    26
        -50.45444094  Gyration_radius:  2.55396958028 Dipole_moment: 4.691
 S          -0.16059462019772    1.30261409675611    0.53587084482594
O           0.71147788447713    1.67752770090899   -0.55490947734110
O          -0.80739520430704    2.55760963873283    1.13569427073152
O          -1.35776251742590    0.53830437478146   -0.02012633308894
O           0.48374950453581    0.55231631992029    1.57557360530483
O          -1.85896988007972   -2.88591831089576    0.63888186354478
H          -2.55666752059723   -2.36308876582097    1.03710688869056
O           1.82516905388585   -2.00681572188061   -0.59891811449105
H           2.40758017704609   -2.46891614674095   -1.20356059238313
O          -0.73635188088679   -1.49271731184425   -1.28147994649777
H           0.21460166773267   -1.67365358428007   -1.11111959592389
H          -1.22974517363697   -2.14368629424407   -0.71326748820990
H          -1.07714600987264   -0.32173673924258   -0.61743225506806
O           2.87834554145276    0.28570099034708    0.14432442412901
H           2.66430345018386    0.30527855634121    1.08296616143170
H           2.28422480865641   -1.15973056765540   -0.35532679084266
H           2.22643051132930    0.88938117864393   -0.25990979451877
O           0.40844231610730   -2.17212640815968    1.83009575764963
H           1.03066688019727   -2.35214378962511    1.11146934543030
H           0.39416500760387   -1.20443139069396    1.91659397240594
H          -1.05880476641897   -2.74889852704602    1.20196968761287
N          -1.39598785015150    3.45197394330046   -1.19357728564025
H          -1.14782054400149    3.06025434594684    0.31225998298902
H          -1.37490286228806    4.41177437829894   -1.51205323147355
H          -0.56086277992191    2.96969635142535   -1.51457007790525
H          -2.20614520338979    2.99143169273980   -1.58655580132876
