    26
        -50.45479420  Gyration_radius:  2.47158128642 Dipole_moment: 5.888
 S           0.24536070049975    1.80422061319808    1.05642351225590
O           0.20858147461382    2.00136772678939   -0.47762588739918
O          -0.14911369342773    0.43615161332736    1.34145770380995
O           1.72039921774006    1.97879887375814    1.41911326104823
O          -0.55055386514159    2.80580827913873    1.67501476811125
O          -2.53751174445271   -0.77497783873016   -0.98022736764300
H          -3.34252283927769   -0.84247720561369   -1.49539427196871
O           1.34770871127755   -2.14951989656970   -0.62421897970963
H           1.48458986643774   -3.01331263422583   -1.01549424295861
O          -2.71775158786910    1.07977797963567    0.93166298882187
H          -2.69303901926986    2.03924932922041    0.97643786364261
H          -2.68958011612185   -0.06400653392500   -0.31660302105488
H          -1.86199267998334    0.80287816947625    1.30142505325137
O          -0.82317824031366   -2.12832337807793    0.82789478943197
H           0.57205203310693   -2.24243321782717   -0.00385373721747
H          -0.59517561164718   -1.28719987802613    1.25675207373885
H          -1.54469717472330   -1.90369173007576    0.22196083226575
O          -0.02951457722096   -0.13143935679828   -1.83177613100969
H          -0.95313569515852   -0.38367322346725   -1.63612898042954
H           0.13860717728414    1.13556272544296   -1.01991313886568
H           0.52489287428307   -0.84665836439225   -1.46134940420763
N           2.89060444583851    0.27283054673315   -0.07688807686156
H           2.39702595929482   -0.61780583422358   -0.07950747778249
H           2.85191367947693    0.65716886905444   -1.01268602123413
H           2.24800989047951    1.26587438499640    0.85645063634163
H           3.85802083428710    0.10582997118359    0.16707326560502
