    26
        -50.45731620  Gyration_radius:  2.44428150996 Dipole_moment: 6.859
 S          -0.37547835273394    1.44449813617872    1.33265271842060
O           0.04970380533299    1.29124863773910   -0.08210173002182
O          -0.98704494165190    0.22207755305547    1.82386118294290
O           0.75080568646092    1.87696579086219    2.13050157157282
O          -1.45675397582673    2.56732768549293    1.32386292758866
O          -1.97498878610380   -1.27171723866232   -1.63434164905580
H          -2.44615128330631   -1.68957091093208   -2.35594973466647
O           2.15870296161385   -1.61983099466427   -0.14905944054233
H           2.62372996700674   -2.40535810125756    0.14184855523436
O          -2.98922769124153    0.72413329863633    0.13754539064813
H          -2.54669686374965    0.29419275153004    0.88603645592890
H          -2.17919682678149    2.16677202240087    0.79906684888411
H          -2.74906729646610    0.17567297724937   -0.62535383012793
O          -0.30834604029809   -1.96697606733093    0.52891765926470
H          -0.54563424896430   -1.21722963013865    1.11673601087348
H          -0.94831007991772   -1.91318311003926   -0.19870750166786
H           1.19760880473563   -1.76424650993143    0.12036978714871
O           0.43040055767159   -0.28561905630474   -2.21778052497934
H          -1.13917925043181   -0.90641487168145   -2.00792196832512
H           0.23331389384933    0.38952371958288   -1.54206612717253
H           1.09226174970607   -0.86233571848607   -1.81993623605449
N           2.48748268713754    0.94854331533226    0.45619483910468
H           2.56633828492822   -0.09285891395981    0.34343845928615
H           1.55507231369182    1.20375968792766   -0.02910788180405
H           2.20678859408837    1.23938307028441    1.41860701045777
H           3.29386633124882    1.45124244711726    0.10268721706597
