    26
        -50.44993713  Gyration_radius:  2.70496986574 Dipole_moment: 5.804
 S          -0.41999155353842    1.64299570989539    1.10913827978785
O          -0.33784786537920    2.78923240586861    2.12118018879436
O           0.84657563207950    1.50754602049332    0.42589322597753
O          -0.59148475740404    0.40882568924492    2.02959067522045
O          -1.55960547815938    1.80167798125919    0.26403402627466
O          -1.73127999403146   -0.03975812625193   -1.72413445809552
H          -1.98483532281466    0.73221185107614   -1.19554318637491
O           0.95879583439475   -2.39111507166664   -1.34370769349298
H           1.61073860215161   -3.03242930025003   -1.62771239060120
O           0.87031143721058    0.33393140120925   -2.02796318855298
H          -0.81020747808446    0.16860992794462   -2.02337599191698
H           0.97571935988895    0.85572471656687   -1.21396286005283
H           1.13683800896926   -0.57118803261486   -1.80285316197260
O          -1.00863658580118   -1.48045948605317    0.39684538944336
H          -0.16820126065796   -1.83750590786130    0.06971347189056
H          -0.78697985350044   -0.40899128562901    1.44579608850906
H          -1.39300772047382   -0.98851037540025   -0.37297971534238
O          -1.44869038304771   -2.67881636479730   -2.50866228470739
H          -1.70623515069857   -1.74290648249562   -2.50408188032683
H           0.14516081758571   -2.56481320730058   -1.87318813342897
H          -2.04706749625299   -3.11830396724054   -1.90030083584656
N           1.99830744466825    2.11656074640425    2.92957825364639
H           1.99778557183613    1.35442273363864    3.59391413984774
H           2.75299875124578    2.75136637678179    3.15285700576515
H           2.13410439002700    1.74076256679781    1.99498619140271
H           0.56673505970809    2.65092950028529    2.58493885448854
