    26
        -50.45347335  Gyration_radius:  2.4245248368 Dipole_moment: 9.795
 S           1.71455374455776   -1.24076633021561    0.33015507484620
O           1.81214190962553   -2.37096416244662    1.21292600622337
O           0.58618864923484   -1.42207451929226   -0.63348235961356
O           1.24606613214270   -0.06042047963621    1.27742346842790
O           2.89383752679793   -0.81217600401091   -0.36397939876319
O          -1.55339182749664    0.58511701154445    1.90406688139068
H          -2.15527007016094    0.64655606475384    2.64723292712891
O          -0.55187457034002    1.71028586756646   -2.16182764908411
H          -0.66654196657521    2.27993461702119   -2.92321460266981
O           0.34854913512941    2.26083152197783    0.40200303104636
H          -0.37460411610039    2.02371053832312    0.99489576680181
H           1.17567428293338    0.81102506141406    0.83413111795854
H           0.00729656465657    2.20958333771984   -0.50534059219748
O           1.47765576751205    0.13758163991500   -2.52966201264295
H           0.26505540498104    1.15717481276510   -2.35019931319856
H           2.35931347084049    0.30690459555310   -2.17796681845090
H           1.16589035145118   -0.59396325118094   -1.95116479335873
O          -0.55221106712227   -1.86627817923249    2.21600329085220
H          -0.99916033295679   -0.22194063543212    2.06694207864269
H           0.30415355172913   -2.05838411883940    1.76210629261311
H          -0.41259385262250   -2.16523360661231    3.11700419289855
N          -1.65913387588257   -0.25640903164820   -0.64156069040468
H          -2.40945485302889   -0.86349462189674   -0.94979019783648
H          -1.82629234430001    0.11434200862638    0.31683731255531
H          -0.71435306856394   -0.82499954098262   -0.58347511570644
H          -1.48149453644234    0.51405740424655   -1.31006389745480
