    26
        -50.45325129  Gyration_radius:  2.59670756123 Dipole_moment: 1.554
 S          -0.22499557142068    1.03184607156345    0.07023456852080
O          -1.68720770125543    0.53760649705404    0.13175586721180
O           0.61903194025305   -0.24899751780949    0.11337106050587
O           0.02210868678174    1.68393841601595   -1.17554681777310
O           0.00520597046523    1.80109459966369    1.26131291326555
O          -1.70152524073335    0.20799798292497    2.86752879158446
H          -1.34889429717087    1.06215224313159    3.13472726269615
H          -1.93994212361425    0.31085276806928    1.93525562910651
O           1.82530152012382    1.19753451132112    3.13093365082459
H           1.18182652362545    1.57529959075316    2.50018631223322
H           2.67926089585349    1.56789210238140    2.90438999493655
O          -0.23888502788844    0.16832167826356   -3.39565424270877
H           0.46772714138830   -0.49929849245056   -3.23459214547045
H          -0.04473003867468    0.89088567816724   -2.77290394212858
O          -2.20502678350035   -0.67301180806986   -1.99271966698880
H          -3.01103875935243   -0.31479436034534   -2.37110759098677
H          -1.45174130599190   -0.40505882086229   -2.62355534047012
H          -1.90926198144458    0.01488686823444   -0.74085791828368
O           0.58662351576240   -1.07507353939675    2.45360484250365
H           1.19150264777243   -0.43073835578596    2.87797854387998
H          -0.31535734830542   -0.80027426759745    2.74638514142274
H           0.61362441805265   -0.65573159635497    1.09764816632841
N           1.57874097382018   -1.59721367206680   -2.41483965496358
H           1.32713048213860   -2.57750147457405   -2.42561699781051
H           1.40940343387139   -1.24468233739023   -1.47744561745967
H           2.57111802944062   -1.52793275484393   -2.60047279997716
