    26
        -50.45305802  Gyration_radius:  2.4561916158 Dipole_moment: 10.322
 S          -0.29524349445220    2.11439931017081    0.09156252317407
O          -1.44245951652116    1.43392196900993   -0.76941386790803
O          -0.07804760798223    1.21091142790819    1.22695073486798
O           0.85101177086404    2.01629301035581   -0.84041227321405
O          -0.65927596870105    3.44316556414053    0.44268608413200
O          -1.57221840464808   -1.78329440149278   -0.53318940003618
H          -1.78076216802139   -2.71399153653234   -0.62440436639171
O           2.42770398138887   -1.32210247435604    0.25585430133071
H           3.28467033511696   -1.74548301634903    0.31179797728457
O          -0.09367764584969   -1.41256007862747    1.53933975610699
H           0.82834302773431   -1.56980298587222    1.29066428136345
H          -0.17911289496693   -0.43524482544231    1.59208810466573
H          -1.05886337216951   -1.69569718562478    0.33044419056053
O           2.53126485832083    1.12022704589672    1.12495705047841
H           1.59000580590986    1.18484441850056    1.40635398397915
H           2.55866123798508    1.70371091484620    0.35702858292662
H           2.54421902823256   -0.39800560645254    0.63562485652973
O          -3.42673611510530    0.08350187067817    0.32976743515372
H          -4.14534970167452    0.16944964422587   -0.29937699712504
H          -2.88820395605122   -0.67822426182884    0.04727537838192
H          -2.17379044571477    1.14715502533300   -0.18353633251879
N           0.63185953585379   -0.39773449607014   -1.56514432598902
H           0.69983052321925    0.68237357208528   -1.29199502726067
H           0.79978329940133   -0.50956611838284   -2.55933401519508
H           1.35253731792367   -0.89233588999227   -1.00160125963774
H          -0.30614943009017   -0.75591093613047   -1.31398737566343
