    26
        -50.45305783  Gyration_radius:  2.45627439193 Dipole_moment: 10.323
 S           1.39355532588590    0.02256539301153    1.61888680772628
O           2.09472522460468   -0.48361405173177    0.28735057005867
O           0.06707631658102   -0.60435492191557    1.61834054398160
O           2.19986422855421   -0.27949716946099    2.75030441942488
O           1.25392633070632    1.46785077422628    1.33008547152218
O          -2.26851034177901    1.58503258017698   -0.22412537003329
H          -3.02294847923016    2.17098871207942   -0.28937216378846
O           0.07451352813231   -1.19995127254184   -2.11828978938472
H          -0.32722744297590   -1.44865264818577   -2.95182240448423
O          -1.70076812651063   -1.18841746013868   -0.25595999489226
H          -0.64990028117135   -1.28703525023584   -1.42225491031368
H          -1.09039094780257   -1.14264615494665    0.51254621949250
H          -2.15223969884817   -0.33244301117075   -0.26790071522229
O           1.71792728451087   -2.90844827536813   -0.68610664950794
H           2.52457781260193   -3.09419904121447   -1.17021994907721
H           1.98085202603389   -1.45266959689298    0.19685296413860
H           1.12531458427451   -2.42607770917920   -1.29118301826304
O          -1.34012050570687    1.51953380112274    2.19761322091040
H          -0.95545788285567    0.61436539677193    2.15174891641923
H          -1.98873262793856    1.59168951962161    0.74194361474865
H          -0.55364498633311    2.07775716077213    2.22532435897789
N           0.32226535630045    1.36441510603085   -1.02030208158101
H           0.46679319896843    0.41771276484502   -1.41305441725218
H           0.78474132604347    1.41701055206317   -0.00617132886955
H           0.73967613555308    2.06594232943583   -1.62258111619716
H          -0.69586733759745    1.53314245282700   -0.89165317853181
