    26
        -50.45305800  Gyration_radius:  2.45619580363 Dipole_moment: 10.321
 S          -1.12951968890004    1.76081741223789    0.43611333702106
O          -0.06248004196901    2.30270577989223   -0.43552317295561
O          -1.99691957428894    2.74255400474953    0.98857018458208
O          -1.91657514759154    0.83901590629576   -0.58930345196294
O          -0.53932277987998    0.83652295440671    1.41073153336189
O          -0.71926349067540   -2.14013170348718   -0.91487079386741
H          -0.53247599687435   -3.04315071561594   -1.17502274600152
O           2.76037210552354   -0.25008693016693    0.15706413405983
H           3.71633056735668   -0.29442753728265    0.18759153703202
O          -3.15585480486572   -1.37058094843191    0.15299509182567
H          -2.45594962429940    0.18224746848297   -0.10132927727104
H          -3.85942467014531   -1.47126781952118   -0.49079689917433
H          -2.35926760860145   -1.78515136526955   -0.22595761387970
O           0.52158851090440   -1.57902462838624    1.26781283241813
H           1.42226223787273   -1.30279702698034    1.04599768247704
H           0.04647263666079   -0.74632754496640    1.48250743176018
H          -0.26871921782436   -2.00787467540296   -0.02236158251185
O           1.87779077022736    1.82837498688717    1.43466177468390
H           2.49819204658562    0.55850037358651    0.69475453612482
H           0.99783981148695    1.45572847040984    1.67173324409685
H           1.64947123699884    2.49989952783472    0.78060566970753
N           0.70677679497129    0.17806979859509   -1.57381350072861
H           1.57785445571376   -0.07465709363489   -1.06505007382681
H           0.88500861997128    0.32298995134633   -2.56190604507986
H           0.00160021434257   -0.56744687499297   -1.43872474755642
H           0.33421262730004    1.12549825941594   -1.11647907433668
