    26
        -50.45305795  Gyration_radius:  2.45626388798 Dipole_moment: 10.318
 S           1.41033812548962   -1.10333285227530   -1.16556554334246
O           1.61480043528389    0.45698066423507   -1.37640774995249
O           2.53604265863185   -1.82175504835454   -1.65346521867072
O           1.14424742618789   -1.26698559873171    0.26800431383106
O           0.15984092941435   -1.32770704263676   -1.92560793646088
O          -2.48653872470013   -0.90426283427683    0.84109496407067
H          -3.35246351964566   -1.23197619668142    1.08508700477691
O           0.04380804248798    2.32401399895036    0.73063978615623
H          -0.33591141681824    3.05172946458884    1.22485599454126
O          -0.93467145958527   -2.83810523656311    0.07710413393666
H          -0.90295168774458   -2.82561362885081   -0.88708449969822
H          -1.94083126312774   -1.71036914048656    0.58818283532540
H          -0.08300856548225   -2.40938181407341    0.32254596067085
O           2.77702017385571    1.99365930243612    0.42834686505996
H           2.22173798201179    0.80952969006743   -0.69259665512972
H           3.15494396033070    2.71122137389435   -0.08340798164623
H           1.85258024197385    2.23506812237510    0.62103818694224
O          -0.16533355825962    0.14248711477513    2.07840748411666
H           0.45054538564113   -0.40609564605350    1.54447580402164
H          -0.00122482785459    1.52048633313371    1.33830629049045
H          -1.04131073723304   -0.23571088986029    1.91641406059509
N          -1.24063127998593    0.59229701204941   -1.05710236180457
H          -0.60911877718823   -0.22243116791802   -1.48460743047893
H          -1.77335669227159    1.03551735157050   -1.79796988995619
H          -1.86590129484596    0.14655231665639   -0.35571675101028
H          -0.63265156656461    1.28418434202894   -0.58497166638514
