    26
        -50.45305790  Gyration_radius:  2.4561763042 Dipole_moment: 10.323
 S           1.30282904070416   -0.67739382907312    1.55219762232143
O           2.27239912624340   -0.24409083351936    0.52047845433801
O           0.62319690815844   -1.91481645829658    0.82631362864828
O           1.89029017692304   -1.08356157695077    2.78157094840196
O           0.24128128085140    0.32786516081952    1.67515298484737
O          -1.84126956443273   -1.14241977708008   -1.11507085076357
H          -2.56920419788894   -1.14551214967519   -1.73806052896661
O           0.21698387562552    2.39824962458775   -1.38164933482355
H           0.34280251556240    3.21497813435438   -1.86530594256384
O          -1.77559876283611    1.09637701362403    0.15104319237403
H          -1.28626941538900    1.73788536790133   -0.38343321296167
H          -1.91540278396202   -0.27657368594906   -0.60347771554404
H          -1.15170983690303    0.82964198881428    0.86153187621533
O          -1.89397225163454   -2.59204876885625    1.24388683345609
H          -0.23996052532704   -2.11396758355713    1.24539251487554
H          -2.01926904189836   -2.13738897870859    0.39086166107500
H          -1.91436110779886   -3.53432916783745    1.06680963803869
O           1.59573458991551    2.39041845399965    0.81606699978351
H           1.01456385393037    1.77341877149224    1.31688134261260
H           0.75515655580954    2.48527020079306   -0.53631041378093
H           2.38439667927459    1.85548001490913    0.66483474645454
N           0.78389660261695   -0.25746840568041   -1.52519903823520
H           0.54675791844769    0.74547718618465   -1.66517199175419
H           1.25938868723307   -0.64080190180472   -2.33520502276750
H           1.45813167789337   -0.30403820963944   -0.63689797414616
H          -0.08079199111564   -0.79065057085483   -1.32724041713784
