    26
        -50.45305793  Gyration_radius:  2.45628997185 Dipole_moment: 10.325
 S          -1.18829512969955   -1.67458357969799    0.59215104934219
O          -1.73854129297459   -2.96672523658940    0.81324571877179
O          -1.73867016230507   -1.06211715427090   -0.76520815006468
O          -1.62506115450220   -0.64504533767351    1.56230233543615
O           0.27315262115736   -1.63640892870997    0.46757274256066
O           0.24482808763279    1.05931289526231   -2.18023860469998
H           0.65328672501760    1.71049763044299   -2.75216894333005
O           1.47910222784695    1.63180156121970    1.69064458019462
H           1.94526138347572    2.19900666049201    2.30529754152836
O           2.00520248695543    0.04995131450480   -0.59855221879253
H           2.09736222238875    0.63117787787535    0.16973106088993
H           1.47478366412530   -0.71228125580789   -0.27781909955391
H           0.99392230513617    0.65133109033117   -1.64230034677970
O          -0.53127385413499   -1.44116793358606   -3.08197901048023
H          -0.20658320819352   -0.53836506638752   -2.90994039751865
H          -1.26919541234536   -1.46255626159081   -1.52654904185603
H          -1.23679291944793   -1.36876812346075   -3.72745964819640
O           0.81010315531539   -0.61113585034417    2.81004436190634
H          -0.12493025688170   -0.55581860003505    3.04148334839252
H           1.28369494116344    0.77885658781884    2.18663639367911
H           0.79294447696832   -1.15203271487586    1.98757536454821
N          -0.88153475244852    1.44958951610606    0.35360046332240
H           0.00316593565983    1.71199982591673    0.83349465140256
H          -1.57226062475523    2.18940851361277    0.42195874041004
H          -0.68241898538151    1.23103629930109   -0.63828495351578
H          -1.26125247976869    0.53303624015767    0.86476208240521
