    26
        -50.45313265  Gyration_radius:  2.57438459638 Dipole_moment: 5.692
 S          -0.25323275235694    2.15095220025974   -0.18574883483659
O          -0.37207672667482    1.17114586274020   -1.25167253757042
O           1.01713306282377    1.82254261391924    0.61858020770058
O          -0.25323542101741    3.50877400089906   -0.57615136851383
O          -1.42364224181035    1.90880072647330    0.79925047271874
O           1.31059277954972   -0.68770980098084    0.85909838859115
H           1.12052981516742    0.80839372243687    0.72369912059471
O          -2.36545197593154   -1.75061314126835   -0.44944021593201
H          -3.10918455373404   -2.35370350745439   -0.47462663774088
O          -1.27276231170064   -0.47537238827283    1.68001037571436
H          -1.38432667116552    0.96858923365417    1.19361804696905
H          -1.69294002987998   -1.03740186362390    0.99708817816805
H          -0.32741644991099   -0.69375894656189    1.66342680783554
O           0.25335661415572   -1.44515525514205   -1.41034360518577
H           0.08986751261483   -0.51210254741315   -1.63253596597767
H           1.00377071182682   -1.07383641181498   -0.00763852718499
H          -0.61962937709484   -1.80227303529797   -1.18725662794598
O          -2.97485392067023    0.66372316218322   -1.33991367287859
H          -2.67586940585229   -0.89844163356818   -0.84951936833403
H          -3.28690209005898    1.26211151424083   -0.65621520713216
H          -2.04208304169661    0.91463154106294   -1.49613553516988
N           3.98559325653483   -0.49755935736762    0.58701102174841
H           4.29405357405841   -0.89861296881700   -0.28984026041981
H           4.60185000875712   -0.82513161301532    1.31977121960750
H           4.07896647036440    0.50886468881433    0.52224333367024
H           2.29789316370349   -0.73685677608377    0.84324118150936
