    26
        -50.45305797  Gyration_radius:  2.45610122803 Dipole_moment: 10.322
 S          -0.39760386952358    2.09945796103732   -0.02474956115635
O          -0.48466812310741    3.49112295826276    0.25303161898599
O          -1.42971423291205    1.59219485813472   -0.95723123390808
O           0.92725584990077    1.77808585717670   -0.83819399378420
O          -0.34296044029316    1.23365679823301    1.15842711774895
O           2.07123725290252   -1.21035774129721   -0.42310942102911
H           2.56765025847964   -2.02897264750526   -0.46114111831812
O          -1.88318339813510   -2.01526804958184    0.31364102788547
H          -2.55994898104076   -2.68814758504116    0.39081447415749
O          -2.78289240566091    0.30616460396183    1.04333164403593
H          -2.29813033737396   -1.15911534118579    0.63997015605700
H          -2.97645540600311    0.81000130464787    0.24359293290213
H          -1.91882829927710    0.68326514223413    1.32705276200937
O           0.50280441407903   -1.22735921803038    1.61614800803370
H           1.53636459623335   -1.24776500295669    0.43101899852855
H           0.27041163799396   -0.27282164410622    1.61529806599231
H          -0.31446279500405   -1.68375781174176    1.37007147381611
O           3.21161437267037    1.19269820834530    0.34846359030306
H           1.69724579355204    1.77136731033612   -0.23204889141461
H           2.95171337397968    0.28550284774052    0.10473957347338
H           3.87994966462319    1.47281594988663   -0.27958983659139
N          -0.43416415032907   -0.65817460337421   -1.54529235535816
H          -0.84990380139264    0.35569385229867   -1.33303188069043
H           0.56280735173221   -0.68397272083050   -1.26840055958298
H          -0.97239155168981   -1.32838567201928   -0.96000082934124
H          -0.53374678439943   -0.86792960462134   -2.53281177275115
