    26
        -50.45313281  Gyration_radius:  2.57412771111 Dipole_moment: 5.686
 S           1.81377320751330    0.91418808303944   -0.77201904559001
O           2.82003231600782    1.77553257231954   -1.26356599194964
O           1.83370387614926    0.88659791449638    0.76664702737669
O           0.45381038519463    1.19989865623451   -1.19544357739904
O           2.13794599820129   -0.53797443016235   -1.20192393317239
O          -1.61141034015543   -1.71442969077186   -1.82403941302813
H          -2.10898283784737   -2.35958313740448   -2.32770418532711
O          -0.27266672654161   -0.19863401808804    1.67816414917661
H           0.98736533329033    0.43410637636145    1.12612852258221
O           0.45585217727739   -2.10930656662855   -0.11374182107223
H           1.49826118130113   -1.20263797078867   -0.76581250512241
H           0.20065232230981   -1.67466502075664    0.71548414813844
H          -0.33739114929893   -2.08624580973121   -0.68733227821027
O          -1.95470968471646    0.53713090361226   -0.18490616710536
H          -1.00583934827932    0.09393999275059    1.06880508129472
H          -1.23185748499055    1.00692404175226   -0.63595650125021
H          -2.11055760014364   -0.25248744818011   -0.72494322223903
O           0.11950729256140   -0.37271200140580   -3.30613924988799
H           0.98827978981895   -0.78011672925347   -3.35263754396207
H          -1.03552079926105   -1.23104475177428   -2.47004234544500
H           0.21057349192443    0.35578452673505   -2.65928058417215
N          -0.38911577696051    1.53988974382167    3.73483416973251
H          -1.17331338070812    2.17240872606183    3.63525386397108
H          -0.38073840435172    0.33095002195045    2.50596410647624
H           0.46069061095587    2.06370804172996    3.56336004197534
H          -0.36834445924770    1.20877798407460    4.69084725420285
