    26
        -50.45313274  Gyration_radius:  2.57380641583 Dipole_moment: 5.676
 S          -0.45578193799405    0.80794520597834    1.96357344139697
O          -1.52128011015493   -0.31604492975727    1.97130019575884
O           0.89653580279631    0.07334427772404    1.98048039911231
O          -0.56861012199441    1.50555165374409    0.69433063558177
O          -0.60590588093624    1.59291693896275    3.12866984308741
O          -2.22846521991976   -0.34839687264601   -1.94416288559915
H          -2.91572977277981   -0.58415300212277   -2.56830726404791
O           1.42885464081156   -0.89303989743751   -0.30596140768651
H           1.09679738934198   -0.32628872066887    1.05827584172369
O          -1.09263430467773   -1.86458457815714   -0.00374589984345
H          -1.36872866410474   -0.97340156041993    1.20594086659374
H          -1.51262565474999   -1.43226884294874   -0.77545137649978
H          -0.13576685434254   -1.82067670377693   -0.15893998193093
O           0.27173149754387    0.91740893770559   -1.79754765321180
H           1.09199904350869   -0.22144257239336   -0.96170979259704
H          -0.54656978078771    0.50931232517553   -2.11888732922053
H           0.00983561811954    1.39694501171539   -0.99246537657664
O          -3.11546119008783    1.17272430329485    0.02885669279860
H          -2.64277737264753    0.26008501520730   -1.28031949439900
H          -3.42584699584545    0.67734887157688    0.79119132770986
H          -2.22329798371582    1.49108962536442    0.27397364256144
N           4.04572576014635   -0.30450818270892   -0.03964583537779
H           2.41233919821142   -0.79272302375589   -0.29616991860848
H           4.32060350232266    0.43858745018172   -0.66984366621334
H           4.03955879679915    0.06835952153279    0.90212275019320
H           4.74550058513616   -1.03409029136900   -0.08555775470785
