    26
        -50.45273906  Gyration_radius:  2.45702388821 Dipole_moment: 6.246
 S          -0.33132940245955    1.80128659624552    0.97943737267612
O           0.51661701265501    0.62404046763962    1.32548743228306
O          -0.53900465747136    1.70409232312218   -0.57979277883033
O          -1.60964885374348    1.72932191995231    1.63481104536170
O           0.42654593188093    3.02253793509408    1.11223211406653
O          -1.47256175530630   -2.43247493905148    0.14155071873733
H          -2.02663722433941   -3.21275439806676    0.18387694403489
O           1.65725980777752   -0.38302300683649   -1.94796805507763
H           2.22336004939325   -0.88959548674011   -2.53143151338074
O          -2.51287955300510   -0.72099709337866    1.85427546226507
H          -2.08643077160409    0.16873477195595    1.84286663795317
H          -3.45249370040825   -0.54323810966027    1.77769881107131
H          -1.81978040474117   -1.80674474015894    0.82885524678384
O           1.17581091103682   -1.72398241943743    0.24170909433446
H           0.95858421303347   -0.96379142743598    0.81540126871818
H           0.33996587054572   -2.21445948358119    0.18720801037725
H           1.52132560840089   -0.94396752850759   -1.13024625199473
O          -1.20810874433106   -0.49879351666303   -1.77625591788127
H          -0.95290419393472    0.87298409889982   -0.93780617016424
H          -0.29753080438859   -0.54137683235401   -2.10069216565811
H          -1.32583350166799   -1.24406525254872   -1.15934148028917
N           2.21919776342536    1.65352735370704   -0.18715969846071
H           2.04032704480491    1.17551693915396   -1.08899301837506
H           1.66640307613585    2.52881348547914   -0.05474529538305
H           1.68123420137754    1.05936136111726    0.56973456132359
H           3.20851207693205    1.77904696205336   -0.00071238449265
