    26
        -50.45364262  Gyration_radius:  2.46004848896 Dipole_moment: 5.001
 S           0.84777350650806   -0.00890212704619    1.94255092001956
O           1.55740182420731   -0.91728768393774    0.90539887891010
O           1.81150428832855    0.81143239658339    2.58251931964167
O          -0.22899865980087    0.67659564437868    1.26817767293739
O           0.25523795857849   -1.00487919104053    2.96129082046138
O          -2.40362418451888   -1.19946072820863   -0.68651254847937
H          -3.29766066959457   -1.39703557428051   -0.96725882317849
O           0.52023566403176    1.21487207226498   -2.25715173106067
H           0.95777643003748    1.44816947475981   -3.07675473237422
O          -1.14459801688070   -2.47092154049781    1.34812452608036
H          -0.49561330217410   -2.93863335764218    0.81585364538260
H          -0.36810182261876   -1.59157939622330    2.45155267439699
H          -1.69895979076761   -1.96195786592709    0.72172683698461
O           0.27690309887344   -1.28603601115343   -1.26519863925651
H           1.02088461318789   -1.07347932754485    0.04852988687053
H          -0.68398115385415   -1.36468486234431   -1.13532966512303
H           0.40100140876703   -0.42908077787521   -1.72452628709919
O          -1.85957544611298    1.34615126523183   -0.75915075183879
H          -1.37272472718276    1.30388655466882    0.08098056186039
H          -1.17233989419415    1.43745794745197   -1.43636510145716
H          -2.31100687886955   -0.20338280675558   -0.69781053825526
N           1.97140207257218    1.98187179775708   -0.16838830990189
H           1.08999410554741    1.56389135673239   -1.51186014837638
H           2.71584983122938    1.32520364393985    0.03664850486779
H           2.34423535923962    2.91292234063099   -0.02335685704597
H           1.26698437546218    1.82486676607768    0.54630989503317
