    26
        -50.45731594  Gyration_radius:  2.44435858104 Dipole_moment: 6.860
 S          -0.39614006250478    1.92470895187083    0.37622619188792
O           0.65338809028094    2.86303300139791    0.04418933447097
O          -1.19143200523323    1.52752105596360   -0.77242279129293
O           0.19474484796699    0.73763787966524    1.04552570052572
O          -1.34395541996122    2.57020910953794    1.43193954743697
O          -1.86243223065277   -2.14633777492334    0.32752538960547
H          -2.27201168913723   -2.99325146645379    0.50662165554178
O           1.97943021271825   -1.03551364564001   -1.52316672739138
H           2.31664251041167   -1.27429304242484   -2.38757724881304
O          -2.89155623836076    0.43983994533550    0.96837867946955
H          -2.59848553161030    0.77602457898977    0.10696649750877
H          -2.61079549022328   -0.48831585077822    0.96803105155522
H          -2.02924918197057    1.88232239634815    1.55553747602181
O           0.68858289596224   -1.89840795817145    1.05524396195467
H           0.47573276056416   -0.95795684813164    1.20187710520046
H          -0.95174583187809   -2.17994914197596    0.70308875217959
H           1.22814588516813   -1.91860859356870    0.25689347336595
O          -0.57861213320866   -0.81795932300871   -1.79825466684622
H           0.98120783104523   -0.95235132935937   -1.64051087281005
H          -1.10695126493549   -1.37915762019410   -1.20827695420665
H          -0.81201738851709    0.09842620487276   -1.53423293551775
N           2.49032234533330    1.04447331058253    0.05264607412571
H           2.47466315086934    0.31352129998802   -0.70162156997527
H           3.38425326118189    1.11145632001077    0.52621684699321
H           2.11633119445946    1.96780301156721   -0.25912108706138
H           1.66193947223366    0.78512552850014    0.69827712606956
