    26
        -50.46138124  Gyration_radius:  2.44977109724 Dipole_moment: 8.972
 S          -0.71475001826947   -0.72941550456103    1.90793359958193
O          -0.49313214852453    0.71592825156904    1.75017270601414
O           0.19933705610099   -1.33049707479972    2.83165546242130
O          -2.16830649904259   -0.88424973544364    2.46292891509534
O          -0.68890037623396   -1.37252705231243    0.57749556416567
O          -1.17579802192214    1.54172456742750   -1.96032657983276
H          -1.49032640029866    1.80526599263179   -2.82561612874972
O           2.56844583088982   -0.07336675467039   -0.78160991192459
H           3.51119774558642   -0.12434024819648   -0.94371749706468
O          -2.86015760614625    0.06368801538797    0.00716097726651
H          -2.13700790567436   -0.58518581906208   -0.00938598474974
H          -2.71792468285930   -0.45648973741848    1.78832858586726
H          -2.53687509148485    0.81940150739199   -0.49663318892151
O           1.88089052669895   -1.97570029847144    0.85755607621067
H           1.77174553160587   -1.80578235440879    1.80562495499252
H           2.36343111666088   -0.79746207122651   -0.12129857030384
H           0.95227335689321   -2.06423742169524    0.57652788134650
O           0.05082255308030   -0.77128933175872   -1.93840574444549
H          -0.27001166723023   -1.12006353007266   -1.08481462098520
H          -0.81014164139354    0.62104309392395   -2.05911277569016
H           1.00050602838049   -0.64205968803023   -1.81598874886951
N           0.77447703721051    1.85874986912648   -0.12158609573922
H           1.54880462208069    1.22938813351371   -0.41219349910204
H           1.11970243357160    2.76028435317025    0.18698301072808
H           0.07855521116535    1.95667339198791   -0.88655523196512
H           0.24314299915048    1.36051944599556    0.70487685465535
