    26
        -50.46954184  Gyration_radius:  2.39860822595 Dipole_moment: 4.981
 S           1.48239887712666    0.54924812032940   -0.17759428911596
O           0.24512488090921    1.23283802153803   -0.56117361552091
O           1.22981770014049   -0.89821560521881   -0.01700733643365
O           2.55779996036673    0.79838474602992   -1.09739939927649
O           1.87163800843513    1.05882995967649    1.24506815988902
O           0.55818226985101   -1.34383005627594    2.47502936299812
H           1.14458417055569   -0.76703903125895    2.97035140155681
H           0.87062916415845   -1.28823733128358    1.54348888713973
O          -2.06850628405893   -0.05868496382227   -0.69398080349659
H          -2.19546191524974   -0.29626197061419    0.23786928457349
H          -1.31283580388572    0.56628904839829   -0.67788116084189
O          -1.85885156756999   -0.36396004067132    2.08312280911199
H          -0.99468477671581   -0.81764513807097    2.25593360049013
H          -2.45744405349725   -0.64318510569459    2.77707063579756
O           1.01155784467010    0.53090035643027   -3.21717480984243
H           1.72303323251026    0.62115022869747   -2.54124530776182
H           0.13829443796491   -0.74299729583481   -2.68674573259286
H           0.48308396017326    1.32657619196281   -3.11106406900798
O          -0.46136405930213    2.00792770817115    1.87109672154663
H           1.04736335307476    1.47091588812812    1.62646144359173
H          -0.49037332375693    2.10187852060078    0.90557420960074
H          -1.06238137870542    1.26607246435776    2.06899716963170
N          -0.28294456787288   -1.44969596351300   -2.02199717367442
H          -0.38002724494576   -2.37001835036539   -2.43517612048725
H          -1.18568391526101   -1.06191354090779   -1.62835103108544
H           0.38705103081533   -1.42932687056473   -1.19327280668700
