    26
        -50.46214866  Gyration_radius:  2.45493042239 Dipole_moment: 8.526
 S          -2.03768059974126    0.08580061716453    0.63704151883331
O          -1.34281242735658   -0.19808435670069   -0.62420429519359
O          -2.62652607409240   -1.09489904416022    1.20779709047896
O          -1.12947470980423    0.77234795565769    1.56440164857593
O          -3.18953182668032    1.09988220006264    0.32090673689189
O           1.57128047802627   -2.01809501202913    0.53661830699267
H           2.03267592307781   -2.73415896538120    0.97553062102015
O           1.76120120254987    1.87956805414957   -1.06158561634278
H           2.45902508420619    2.24482875590557   -1.60615980533885
O          -1.16656636223964    2.40870481772722   -1.02611883093361
H          -1.17546045052089    1.43823444009241   -1.10029971629510
H          -2.73702432014837    1.85820418630997   -0.07113626657869
H          -0.23586530787156    2.64443634151101   -0.94894954343024
O          -0.89016199945524   -2.83253844424011    0.28869277825121
H           0.61666495244131   -2.31624431868488    0.47096547086794
H          -1.11359323730531   -2.74841730055413   -0.64213936817278
H          -1.55951011691929   -2.27065665169504    0.74451469564967
O           1.01575252594894   -0.51871477639459   -1.81316674753627
H           0.08997439950819   -0.45494791845044   -1.50392754713089
H           1.48254977955355    1.02530657559768   -1.49202940843039
H           1.42619490047951   -1.16577460562927   -1.22569173308829
N           1.38286446470114    0.58308808551420    1.28366915686573
H           1.85589899500658    0.86248657260776    2.13548153441942
H           1.56013503653804   -0.41862555139492    1.05577288975934
H           0.29507596173045    0.68264223019218    1.41272607273955
H           1.65491373836679    1.18562612282953    0.48129034713551
