    26
        -50.46138005  Gyration_radius:  2.45080835756 Dipole_moment: 9.006
 S           0.24370694177623    2.06719005551133    0.61718571214272
O          -0.40653010339460    1.79710575535212   -0.67415257584674
O           1.50882388516256    2.72115181986395    0.47271742593263
O          -0.72640247675345    3.01144378483595    1.39978860403998
O           0.33537783754165    0.80796153333623    1.38604588291542
O          -2.21948392397135   -1.61498682262767   -0.27933752350744
H          -2.79866929471473   -2.37016353823884   -0.17311133292067
O           1.93089442701842   -1.47774359061853   -1.14041446005337
H           2.68004380724694   -1.89660814765671   -1.56572019007023
O          -2.32924529700407    0.81162906072358    1.43463505735199
H          -1.54937061305401    2.50216151376083    1.45537498711473
H          -2.59862698538830    0.19461645181104    0.74449712147296
H          -1.39040936500809    0.62160617848753    1.59795494081465
O           0.05902091268877   -1.84125688243888    0.98964051666008
H           0.77470705398490   -1.99896726052669    0.35996157680316
H           0.17837142775188   -0.91815130278480    1.28362665292672
H          -1.43331758295633   -1.77425365947858    0.31048668758818
O           2.78936556662323    0.36941572734987    0.48130591574325
H           2.83219666025539    1.30047350060141    0.21749624884018
H           2.31174602083613   -0.75683895763790   -0.55978036171040
H           2.02436563924435    0.38113852682489    1.08545736322826
N          -0.44419822462280   -0.40965121033420   -1.91772411067151
H           0.46543193256762   -0.88365162561082   -1.74984163782822
H          -0.41111065083337    0.55485569811138   -1.38662756986891
H          -0.60698924755628   -0.25059458257137   -2.90536324731292
H          -1.21969834743718   -0.94788206605432   -1.48410169377837
