    26
        -50.45450922  Gyration_radius:  2.45162162936 Dipole_moment: 5.287
 S          -0.13718453723645    1.90338354225460    0.84755345704740
O           0.63972866681826    2.70320789749154    1.72359482703514
O          -1.55680297301447    2.48478904952842    0.67112956349158
O           0.48550143517740    1.98591237505073   -0.55633938999323
O          -0.27927115823685    0.50952926500179    1.22772004537088
O          -2.12812396328521   -1.40641496538849   -1.07887541468645
H          -2.62895500798888   -2.13299393912025   -1.45136777043691
O           1.98913752476060   -1.41419161171251   -0.93589925638764
H           2.76672821514382   -1.65216015925359   -1.44228700935450
O          -3.00741110702212    0.36018038166499    0.79241146496263
H          -2.82507856779145   -0.20102278169235    0.01196387323865
H          -2.47066951781533   -0.01025808049027    1.50097723908074
H          -2.21599957783273    1.72537248917137    0.66911229726081
O          -0.23695525991201   -2.10798318078890    0.56928653974911
H          -0.21403862298584   -1.22789657491750    0.98419534679717
H           0.58709856847864   -2.15552178755394    0.06174414591383
H          -1.46485122400158   -1.80013188565202   -0.44234071542079
O          -0.01914849854494    0.02524079719548   -2.06475691955413
H          -0.85443316384487   -0.41587938298235   -1.82449760055139
H           0.22077196281221    1.22164756435048   -1.19181984613524
H           0.70295037247800   -0.56611356629497   -1.76566118970685
N           2.60768296285010    0.49929912736664    0.81592220144176
H           2.27677994058380   -0.71871338720741   -0.27599845067780
H           2.64941959417087    1.38713846117041    0.32837889046053
H           1.74137042688832    0.52393250730552    1.34463427378484
H           3.37175353001284    0.47964785499204    1.48121936707985
