    26
        -50.45450939  Gyration_radius:  2.4517864358 Dipole_moment: 5.290
 S          -1.39539032073061    0.84783041563876    1.30191672177145
O          -1.38499281566332    1.81105845131048    2.34251077265724
O          -0.63498965657492    1.19575792755417    0.11532446678122
O          -0.86831354297565   -0.47990649264477    1.87186112795845
O          -2.83743344141986    0.52572962089822    0.85331022106769
O          -0.63077908193901   -1.32040096908371   -2.35091199109328
H          -0.51649951026959   -1.75191359058060   -3.19837068945841
O           2.49744297567979   -0.72552180150208    0.26113281198545
H           3.28492823349767   -1.14289035119542    0.61249025800330
O          -2.58268366148163    0.46086379657434   -1.70880975112946
H          -2.02178181153781   -0.30070025795573   -1.95948325157795
H          -2.84979508494451    0.44181724979890   -0.14871040928545
H          -1.99117915213685    1.22074612001908   -1.70739641063366
O           0.12974076749509   -2.05449835543126    0.16921257286390
H          -0.24063490506445   -1.91228985569181   -0.72105937847693
H           1.03689494963302   -1.68396287831635    0.15475538965195
H          -0.52704522152540   -1.14809546334738    1.16818660836236
O           1.13195291307716    0.51934905610582   -1.80945134884946
H           0.55088636563001    0.94319443198603   -1.15373947563888
H           0.07791994971494   -0.61856506343810   -2.27833793959449
H           1.82923339850462    0.10481193860498   -1.27940397785404
N           1.60032680148937    1.09923712393916    1.98685231261730
H           0.88317868916086    1.53029467683777    1.41191300604878
H           2.21732732131528   -0.03232367047491    0.92658967079890
H           2.14243227034268    1.84399392948533    2.40906814220372
H           1.09925356096220    0.62638400110453    2.73055055104306
