    26
        -50.45440517  Gyration_radius:  2.44956595459 Dipole_moment: 2.515
 S          -0.27249178133782   -1.41656090861952    0.52152426147431
O          -0.19704386795209   -1.35922532637254   -1.01635915586864
O           1.10474985490224   -1.91574182316299    0.90640774179226
O          -0.45504499440185   -0.06633302658757    1.01831303586491
O          -1.29069841266388   -2.32433470709201    0.95049411402910
O          -3.48718463561752   -0.98724816040421    0.23706140531023
H          -4.18954637834766   -1.62717185189668    0.10288268257974
H          -2.74087079614574   -1.48219500874434    0.63032162832455
O           1.78478355222880    0.73875429419317    2.31923657084894
H           0.90608992917809    0.48381681664097    1.99088519729468
H           2.24158119023751   -0.08462522734095    2.50239198151382
O          -0.89044026828775    2.07722471281401   -0.44858172243735
H          -1.41015344168252    2.70905518689553    0.05172766894176
H          -0.70365376591465    1.33503678052805    0.16711430259075
O          -2.10089497037251    0.05753823058372   -1.77669474471043
H          -2.76823015032482   -0.22780676341034   -1.11091143921684
H          -1.76880625871177    0.93013815640600   -1.47975480384342
H          -0.99645785976217   -0.79957400709746   -1.41170068654296
O           2.52837364879802   -0.91651797167040   -0.85354736972947
H           1.97749048391376   -1.12388200194012   -1.61464614187165
H           2.44416861432461    0.10173076633835   -0.70557160997618
H           1.79160538704466   -1.51065547728001    0.18823546208996
N           2.18004303204032    1.60931000439606   -0.39651732737193
H           2.17492883709510    1.58619837975921    0.62410634082096
H           1.26600413567061    1.92990701680312   -0.69903687690740
H           2.87169891608458    2.28316189626295   -0.69738052499880
