    26
        -50.45450943  Gyration_radius:  2.45177892019 Dipole_moment: 5.290
 S           1.87051349262035   -0.88688669462460   -0.27587025126888
O           1.32171226342270   -1.21747943696852    1.12243377003019
O           2.37229346136242   -2.08334911520540   -0.84813352263996
O           0.84559599473661   -0.20345085664432   -1.04383505042688
O           3.00661194922017    0.12496496723724   -0.01167692272427
O          -2.36754495775203   -0.93811832334025    0.58713139722480
H          -3.06238868855782   -1.42097095169322    1.03639271502153
O          -0.41414925181235    2.68645463981307    0.52933295415663
H          -0.87330373520049    3.51776092115190    0.65429815020555
O          -0.44042000142705    0.37263698735622    1.98316798833996
H          -0.35788956456379    1.25940174504966    1.58710264883715
H          -1.22028463175884   -0.04702470047726    1.56337887839567
H           0.65659147472475   -0.52963919133823    1.49984553085923
O           1.93288394578627    2.33048777271611   -0.79747080253938
H           1.52415141891983    1.90520875082666   -1.55861568538568
H           1.19093588990932    2.56034853566525   -0.20248749191879
H           2.67987488369399    1.04416661969323   -0.25534972240455
O          -1.54013104397843    1.05356246874960   -1.15898032041863
H          -0.71126995580227    0.56439916614385   -1.30381120373271
H          -0.92063260040694    2.16967482683182   -0.16101975010888
H          -2.09189108954361    0.44359231185886   -0.64657443511758
N          -0.64533746607931   -2.65268953095033   -0.51123108188722
H          -0.08789080301780   -2.00062909339564   -1.05409682960957
H          -0.02454711411403   -2.99879659059400    0.21166113509947
H          -1.76637880544247   -1.62045000350848    0.16891250276462
H          -0.87710507493322   -3.43317522448776   -1.11450459076784
