    26
        -50.45450933  Gyration_radius:  2.45192220052 Dipole_moment: 5.293
 S           0.14114466742162    1.75613884622315    1.12154345874720
O           0.41888898709767    0.53120428236919    2.00928323994020
O           0.03611132002008    1.33115839352906   -0.26249957052713
O          -1.25532993471070    2.24243126277242    1.56648845833079
O           1.13397146159444    2.73204941956013    1.39127847887143
O          -2.37397019124546   -1.17984906661648   -0.79736878234695
H          -2.97663235134673   -1.76935414455888   -1.25208683465280
O           1.65673311303268   -1.96126127389280   -0.49091594226825
H           2.28659603884146   -2.66973020693870   -0.35237059781659
O          -2.72482341034704    1.48893080170988   -0.41040848857551
H          -2.05904665854074    1.74675724893587   -1.05644451140362
H          -2.74855779523356    0.51128304719277   -0.44217487219314
H          -1.92706439453102    1.96650144388478    0.87099357443542
O          -0.49896957313410   -1.65199874224991    1.13387158597405
H          -0.01560626803583   -0.34348555113270    1.68670226035211
H          -1.27176966148084   -1.51781330898715    0.55525393807451
H           0.24869300582580   -1.89037762248501    0.54692835636746
O          -0.18123988812720   -0.63870368519752   -2.09454501328256
H           0.49875904785221   -1.25385208210463   -1.78101583345967
H          -0.02736802025188    0.17278505652653   -1.57972208401609
H          -1.59690250831762   -1.02334149597083   -1.40731450761256
N           2.74397945080193    0.36489793123406    0.22940168236173
H           2.70470574171171    0.44455850648165    1.23925938724818
H           2.02767819981283    0.99504726556778   -0.11767963589839
H           3.64149951102842    0.72679086209677   -0.07106098830650
H           2.11852011024781   -1.11076717734862   -0.23539673844613
