    26
        -50.46437124  Gyration_radius:  2.4944038778 Dipole_moment: 5.805
 S          -0.82862602973653    0.47533290871035   -0.58002869223610
O          -1.95465884249611   -0.02429658066387   -1.52464072828285
O          -1.34087603076248    1.52311733094874    0.27867046740075
O          -0.39781003899741   -0.68622621039281    0.22893468450278
O           0.24439641309363    0.90325620269554   -1.46129894506079
O           0.93124125288234    0.89636937909124    1.89498409830469
H           0.46259188497312    0.21203784794588    1.37395054682181
H           0.27589300311266    1.58902337226347    2.02077608128902
O           0.99734239100352   -1.65429322149533   -1.71192440349950
H           0.78927309611472   -0.86915893030045   -2.23983889389512
H           0.39583915632228   -1.53118597940366   -0.93742688078733
O          -2.45630127597018   -0.06138369555016    2.05477236896866
H          -1.81135010402050   -0.77164531850968    1.97655118349216
H          -2.07529478550035    0.67171773665797    1.52326102031657
O          -4.03836639110309   -0.45046576367018   -0.02230381899949
H          -3.59313847808233   -0.39837130180609    0.86019832727543
H          -4.59690213425472    0.32728841518646   -0.08559439213514
H          -2.77171834651049   -0.24166741221946   -0.99467746029711
O           2.43124290576080    1.53000214675004   -0.18759511717849
H           2.03168834428885    1.48343934674261    0.71277239282464
H           2.94088959408630    0.18446660359126   -0.35232107794695
H           1.64325934264834    1.48544218313372   -0.78313755642322
N           3.16450996325274   -0.90351231061186   -0.47514825040282
H           4.03268867300915   -1.04850528039757   -0.97950892340555
H           2.31963304407155   -1.29871998615759   -1.02925669801295
H           3.20455342283248   -1.34206149252168    0.43983068740500
