    26
        -50.46138011  Gyration_radius:  2.45066704818 Dipole_moment: 8.997
 S          -1.76240029326786   -0.58065459337025    1.12588423771213
O          -0.83870478135233    0.39160768007542    1.72983302123218
O          -1.79309995939126   -1.82585678335625    1.83119515758448
O          -3.18144171659545    0.07304427080735    1.19361154443616
O          -1.42842736103549   -0.74172275423937   -0.30511029509091
O           0.73933885016095    2.36028770033402   -1.22250852650041
H           1.02649833238525    2.96415815913797   -1.90800353168573
O           2.26185983852289   -1.44203502696062   -0.11988977146028
H           3.02366480395684   -2.02013981615218   -0.06559255852729
O          -2.11563918350095    1.81498836595388   -0.60675453739134
H          -3.07879501339512    0.89998045909401    0.69824941846708
H          -1.28407021699365    2.30280525408419   -0.62253449205916
H          -1.87252706004777    0.88670308779625   -0.75994864818429
O           0.09641180331397   -2.84469003531209    0.23124617355928
H           1.46440529888141   -2.02044861582880    0.05715099100916
H          -0.51937253309847   -2.25833013980952   -0.24546294047641
H          -0.33689152489116   -2.90609196213915    1.09551028663071
O           0.56521574353841   -0.13058278737958   -2.00920875696622
H           0.62819681498564    1.47062557800179   -1.65546346367033
H           1.28554340992618   -0.64973695521493   -1.62800237684011
H          -0.23254300402849   -0.40437793302085   -1.51786295916096
N           1.50558705213647    0.94223846257623    0.94376203868335
H           1.37637027680766    1.63298474256546    0.17892059479408
H           2.04777272024702    1.32883480979047    1.70785182519783
H           0.49334316200822    0.68875916872677    1.29729268047036
H           1.92970454070288    0.06764967384108    0.57583487822893
