    26
        -50.45450885  Gyration_radius:  2.45161053746 Dipole_moment: 5.287
 S          -0.20862603322410    1.65940439827813    1.24950670403971
O           0.52425591596226    2.25650938157121    2.30643757669267
O          -0.32319505189467    0.21314957249252    1.30183797063433
O          -1.63824091973240    2.23703209790434    1.16502512679068
O           0.44677172911884    2.06940993245657   -0.08001856294119
O          -2.06317734242034   -1.16605449534589   -1.43375536003608
H          -2.53594011317309   -1.79862453952571   -1.97583036259608
O           2.04870049568623   -1.12840180110101   -1.16752076631971
H           2.84412122308363   -1.22679073345578   -1.69220332267267
O          -3.03418083123509    0.11034521497324    0.76300917276161
H          -2.50218357286437   -0.39901632027426    1.38353951985585
H          -2.27716514483654    1.48439056635582    0.97341187410609
H          -2.81922141696563   -0.25454003910856   -0.11895794825287
O          -0.19863756000691   -2.18663139880679    0.07258943789104
H          -1.40719499062263   -1.68123587816837   -0.88208943101101
H          -0.20788297079672   -1.42221931383757    0.67494732408541
H           0.63950043884875   -2.10451352273269   -0.40646569168936
O           0.03466359919195    0.48968035165258   -2.00579426932011
H           0.76311143769462   -0.14035789755627   -1.82396961511999
H          -0.79551331266223   -0.00927673320537   -1.89755346235326
H           0.21956289824046    1.46301870454709   -0.87921930767854
N           2.57264007887334    0.35470296664584    0.98662394405320
H           2.60314871873558    1.32995350586311    0.71158393577312
H           1.69333071541572    0.24268097884715    1.48146615871330
H           2.30088993017142   -0.59415441831076   -0.35964483017410
H           3.32046209913857    0.20153942015374    1.65304418485731
