    26
        -50.46062675  Gyration_radius:  2.58259611081 Dipole_moment: 4.431
 S          -0.45363333563801   -0.70376427569003    0.12756995641303
O          -0.72554602218935    0.75197386408540    0.28467283676814
O          -0.48219505081580   -1.32238188290216    1.54195536130658
O          -1.44742151044815   -1.32389095599051   -0.71534914694596
O           0.89799576561672   -0.87947875707223   -0.38867846885880
O           1.59594698637405    0.96760789283116    1.57169779319827
H           0.73233649814199    1.08777143922794    1.13757719209098
H           1.91942196265145    0.14129934790411    1.19672392049930
O           1.25705549253316   -1.83606430167712   -2.82675583436935
H           1.19283459490248   -1.53457589412668   -1.89233527369122
H           1.32263755908354   -2.79122558958234   -2.78697073395348
O           0.42189302044501    0.97883062427957    4.02092878577165
H           0.96538058271906    1.05737226600459    3.20930582950686
H           0.74128349971263    0.20275110288807    4.48439692696837
O          -1.06218546858587   -0.58434375944489   -3.19562164844224
H          -1.42460431191726   -0.92656494176709   -2.34224460577689
H          -0.38814597137434    0.60032698558628   -2.67602675392589
H          -0.27929786172944   -1.15543744476212   -3.35605015568536
O          -1.87736402807769    0.41183742064447    2.77309980839583
H          -1.15551493829306    0.72267365620282    3.36908413560494
H          -1.83038469474213    0.96869746578246    1.98532982742822
H          -1.12608993999936   -0.76985337265008    2.09497816329111
N           0.17964951811696    1.34719784544033   -2.07243330773272
H           1.15070220799444    1.04273258993960   -2.02798429434757
H          -0.22762630757263    1.25182782340880   -1.08793743894841
H           0.10287176309473    2.29468085143866   -2.42893288456979
