    26
        -50.45450915  Gyration_radius:  2.45157179853 Dipole_moment: 5.288
 S           0.73618429006191    1.93028010841782   -0.30130397469772
O          -0.31870346702068    2.98947851002170    0.08582394418890
O           1.83964180554518    2.52378980565982   -0.96530239474365
O           1.22920889873076    1.37402110677270    1.04515213383387
O           0.05269272083351    0.87914605715144   -1.03299343243468
O          -2.59537147473080   -0.60038594649867    0.75638988238205
H          -3.38026456513672   -1.11628400545515    0.94402922954515
O           1.13789373033260   -2.31238993948735    0.43602551787458
H           1.70382068188659   -2.97907533133231    0.82706950430476
O          -0.16113638401073   -0.50699304850702    1.99512073452937
H          -1.08375818034509   -0.47353878919808    1.68255594690360
H           0.26707164669978   -1.24782202768908    1.51717405486695
H           0.62226832689839    0.65704276813732    1.46425443193737
O          -1.05470494105116   -1.58155581647984   -1.10083960735740
H          -0.36692761337751   -2.10365563134365   -0.66118096725564
H          -0.63413729612139   -0.71953360388535   -1.26602388334306
H          -2.11263868477857   -1.05750790766367    0.00928866711924
O          -2.51198449084981    1.79104524697575   -0.53605739578927
H          -1.23328948284873    2.60881877427548   -0.08702200436049
H          -2.12873849285058    1.42655682986824   -1.34084193738573
H          -2.64027832254082    1.02399979469107    0.05762961965491
N           2.63051593056099   -0.45772401946022   -0.76603881777743
H           1.73907093691754   -1.65896157033645   -0.02605904865286
H           3.00368799121842    0.16812882434703   -0.06121647991758
H           3.36352855529594   -0.62473477386902   -1.44545960457345
H           1.89634787056915    0.06785457480716   -1.23017409875655
