    26
        -50.45450928  Gyration_radius:  2.45183467496 Dipole_moment: 5.291
 S          -1.02693011863855    1.09864491912807    1.44882671695860
O          -0.68852469841903    1.93544401802813    2.54252335486589
O          -2.52244181926822    1.23003848055879    1.08728718390020
O          -0.26236985821736    1.31174991325332    0.23340180939795
O          -0.87050333018281   -0.36404977303551    1.89745268435596
O          -1.10333563088318   -0.90222770502287   -2.37411384036130
H          -1.16108628291640   -1.28144846705437   -3.25180237502180
O           2.19983941906708   -1.41241180554493    0.03344753322343
H           2.85171687912228   -2.06103374313950    0.30197607519183
O          -2.43068025160633    1.29932309252993   -1.48590810686684
H          -2.12419872979096    0.43312647058575   -1.82207507226361
H          -2.61078443832509    1.23273345730480    0.08567664597519
H          -1.64730464906580    1.85938705183973   -1.47987494655721
O          -0.44885981054679   -2.01504092658339    0.03459063741530
H           0.52402340028685   -1.91193789379014   -0.02375685299954
H          -0.76903346009049   -1.04338166374478    1.13169183217902
H          -0.81076561596217   -1.70559566394335   -0.81583107192163
O           1.13552215977523    0.32334649417459   -1.85300252411398
H           0.73432094898695    0.83917195677235   -1.13176764995218
H          -0.22173169318325   -0.43436266401336   -2.31162308715372
H           1.71422827407710   -0.30958398940330   -1.40205541857467
N           1.94806277611803    0.44684066761926    1.92882871104428
H           2.16314847976465   -0.72342597967960    0.75851437330777
H           1.35490650844712    1.10644440212363    1.43515346268916
H           1.37198788761958    0.07508031889538    2.67562074301305
H           2.70079367444186    0.97316903193057    2.35681917261369
