    26
        -50.45479392  Gyration_radius:  2.47184175297 Dipole_moment: 5.877
 S           0.28009253536170    1.89400245375083    0.87018103462193
O           0.16052156651147    1.95161339515976   -0.67109230817945
O          -0.07762834531882    0.55305460578437    1.29729956137324
O           1.76926198052350    2.11639369859676    1.13607998210553
O          -0.49779341795769    2.93838874749734    1.43924448223004
O          -2.58122355768076   -0.88783275254333   -0.74963175669098
H          -3.41322029575397   -1.00760461260739   -1.20949710366339
O           1.34233185230383   -2.17953732870657   -0.51467974843658
H           1.47154041373983   -3.07321990685297   -0.83500754147557
O          -2.67763478285596    1.12745170917432    0.99861064129467
H          -2.70546225808857   -0.12278958831808   -0.14271377858492
H          -1.79530519865184    0.89508962154977    1.33530177868326
H          -2.66684863004745    2.08730712699265    0.95633900604548
O          -0.73751590341473   -2.05498744113049    1.06083220555029
H          -0.49846305773354   -1.17558220713656    1.39692444287963
H          -1.49848509641908   -1.89509494093287    0.48342848207955
H           0.60712911946544   -2.22609048551211    0.15781715036543
O          -0.14109444776011   -0.29545790283092   -1.80956527154906
H          -1.04629337336953   -0.53835657590656   -1.53245184050383
H           0.06308781814686    1.03992933267550   -1.12810182943761
H           0.44747865116492   -0.96792881194605   -1.41279859356404
N           2.87881926452824    0.29662956989411   -0.26950757180315
H           2.39718221687712   -0.59480990823082   -0.16800978495420
H           2.27585189944525    1.36239123481900    0.60922452833580
H           3.86032304211800    0.15868477071520   -0.06706559621691
H           2.78334800483903    0.59835620604793   -1.23116056050931
