    26
        -50.45526235  Gyration_radius:  2.41584914781 Dipole_moment: 6.813
 S           0.12908257643227    1.15649199109534    1.51885455327536
O           0.34687597778256    1.67650631933577    0.14443737107043
O           1.40109251771866    1.11956617281029    2.23118452873740
O          -0.80559156657701    2.17025394639308    2.24571523581506
O          -0.52428838534734   -0.12790916607234    1.47900702052998
O          -2.49733276906901   -0.93395769315677   -0.88773136180627
H          -3.34114848287705   -1.36263126726964   -1.03514167260079
O           1.69884196259840   -1.67291468347614   -1.04402642721379
H           2.07635690408430   -2.12902967452472   -1.79776811237941
O          -2.41548013388921    1.69745455852986    0.19621571484379
H          -1.62625090085724    2.11316957983946    1.71036626893501
H          -1.58923000234520    1.94405857156148   -0.23665371890235
H          -2.54176987331850    0.75618076810301   -0.01538888786025
O          -0.75325002440488   -2.51187720646144    0.38929158977005
H          -0.67035375503833   -1.75297597134262    0.99765810560894
H          -1.94046776100767   -1.57215848931608   -0.37790200915567
H           0.09947100678513   -2.54984445790502   -0.05897342992615
O          -0.10662665336700   -0.01279381542547   -1.86204063206341
H          -1.00871122723140   -0.34897038882844   -1.72996561948642
H           0.00608440062652    0.66553882291821   -1.16366122724845
H           0.95919321815440   -1.09358813278030   -1.40761481007812
N           2.67587506289550    0.53884781938864    0.12176854842612
H           2.47144600801621   -0.42306780229402   -0.24988742101192
H           1.94554810348229    1.18222715302140   -0.26422176196899
H           2.38439229938151    0.62875508935863    1.15806166510776
H           3.62624147737310    0.84266796649603   -0.06158351041646
