    26
        -50.45526237  Gyration_radius:  2.4157947247 Dipole_moment: 6.811
 S          -0.02607178413323    1.87898032845600    0.35738145085618
O          -0.52906795416485    1.22870645704716   -0.82679342717271
O           1.23074496234926    2.58084624921235    0.12379152025130
O          -1.08050259657650    2.91947396818288    0.84241690240524
O           0.15244898687210    0.89761740367360    1.45816126891011
O          -2.36147722094799   -1.36882416325168   -0.66761180488276
H          -3.14870001812096   -1.74604842254717   -1.06194042600079
O           1.89339472437182   -1.56768953431697   -0.85596987605267
H           2.33148830554368   -2.41969141439509   -0.88601355145422
O          -2.59560042681686    0.77503348375750    1.19131806318030
H          -1.79678690892385    0.55099750018380    1.68381744470253
H          -1.88135269991652    2.36330684442857    0.95480037304571
H          -2.61041011747006    0.15940950279671    0.43798608483014
O          -0.07657854238478   -1.67512823405873    0.81528162808053
H          -0.05184855865737   -0.74224776257606    1.11485189243137
H          -0.93651401102416   -1.76435813473872    0.37164415182864
H           1.09813156788365   -1.68197251718467   -0.24828722894417
O          -0.46847386032679   -0.81876607372956   -2.47860226492037
H          -1.74368408785193   -1.16166644006795   -1.41096435468723
H          -0.48162476826113    0.06743517645568   -2.06960933395645
H           0.38963821463448   -1.18116765989356   -2.22999106388102
N           2.59538849978252    0.52094018040235    0.67729623274253
H           2.27939579831457    1.46759952850126    0.26365129031933
H           1.80315796921534    0.41548945014260    1.35367171921317
H           2.50687253252381   -0.25240214582879   -0.02929348149303
H           3.50803200408695    0.55412641935031    1.11900681064889
