    26
        -50.46438035  Gyration_radius:  2.41492222807 Dipole_moment: 4.126
 S           1.11747003950646    0.70195988784156    0.96510759121564
O           0.27883452717774    1.46322872332996    0.03405246010789
O           2.51280657491497    1.08703850255339    0.81083249266310
O           0.66726188450393    1.03136248835806    2.40952008494874
O           0.94054453224747   -0.73514377472353    0.75720693664229
O          -2.76134862804226   -0.93349759800923    0.46299069835062
H          -3.63036229144566   -1.25102408342930    0.71210164297246
O           1.14723550007175   -1.09561997425458   -1.83691335055237
H           1.15966316266218   -1.17292802293625   -0.85607363453100
O          -1.21697933502275    0.07150262522022   -1.69788416045853
H          -1.88241053566560   -0.35312789315056   -1.13892659749666
H          -0.73794954051215    0.67399596154532   -1.09526038234730
H           0.21616769266584   -0.81901430803665   -2.02028896634716
O          -1.80959258350267    1.33270272116320    1.69936988384292
H          -0.32322765720533    1.12005228384071    2.35903757321424
H          -1.34218439908960    1.71470314319453    0.94106701065118
H          -2.23780597291064    0.52719386460249    1.34911151275569
O          -0.87886654165768   -2.47368239594180    1.49790062283229
H          -0.59800388685027   -3.27812997259476    1.05787453226601
H          -0.15750281823870   -1.82267907285978    1.34430744914151
H          -2.10692296584463   -1.56197460454917    0.85594939238159
N           2.35495769856423    1.17491046680761   -1.75563630537411
H           1.63450460394339    1.87916553221136   -1.90483993460718
H           2.57433919196108    1.19138883781846   -0.69756633278366
H           1.90320567176514    0.18182303427938   -1.92558275624630
H           3.17616607602196    1.34579363776185   -2.32745746326553
