    26
        -50.46438038  Gyration_radius:  2.41489087161 Dipole_moment: 4.123
 S          -0.58533544590919    1.38114967414894   -0.65139149813935
O          -0.13291415284646    2.30339962683361   -1.68279965309617
O          -0.83525294392081    0.05851230364580   -1.23275478920071
O           0.38793568681173    1.28752503821478    0.43658876022996
O          -1.91252561770137    1.91197582271579   -0.05621257293887
O          -0.88597243022389   -1.70505110368938    2.24033884121036
H          -1.21626923429017   -2.17297197597086    3.00846101880853
O           2.36583696742232   -0.15395582995313   -0.51831650225895
H           1.79294430047216    0.48609698878905   -0.03836785738485
O           0.51765967993503   -2.01391968297269   -0.20898799525173
H          -0.04631163865826   -1.33861802868791   -0.63508741137154
H           1.90706823976263   -1.01519621325049   -0.36079417853973
H           0.14531737296333   -2.11752840645010    0.67767269980989
O           0.24297842348179    0.57509045924161    2.95719671085912
H          -0.45531568710697   -0.88022938256319    2.57475373747503
H           1.15768994905062    0.60891719367687    3.24305270359851
H           0.23566795016301    0.95076896594880    2.04813126762716
O          -2.71309770135983   -0.46774472632206    0.59696987470729
H          -2.36179936706522    1.11217206850537    0.33090086641006
H          -2.27094387307223   -0.63645829388990   -0.24884519846311
H          -2.15919643378705   -0.91976638184647    1.26308920873291
N           1.38412932728998    0.54568100835061   -2.79144148130873
H           1.99301176312433    0.78948556795396   -3.56628238528733
H           0.72051346612616   -0.18439356209595   -3.04429738311182
H           1.93250851513743    0.21307360418168   -1.89260119694929
H           0.79167289420311    1.38198526549641   -2.44897556616392
