    26
        -50.46438028  Gyration_radius:  2.41491147014 Dipole_moment: 4.128
 S           0.49126994198126    1.53927052975763    0.24987430464524
O          -0.62263085108440    0.93115105556173    0.98407656283808
O           1.40690691504104    2.18776989382528    1.17730084230010
O           1.18245656942441    0.53446950941812   -0.55803329533943
O          -0.08280189142078    2.60841715141754   -0.71184933190711
O          -1.71226655123290   -1.26065750261101   -2.04627326618396
H          -2.23892617125031   -1.59327068977455   -2.77434408853809
O           1.58988597347249   -1.49871765901901    1.05498143248481
H           1.63340192428045   -0.81000948409816    0.35357495864716
O          -2.26624135547071    1.26240198677019   -1.09933330239885
H          -2.09868931681107    1.09453951580868   -0.15957469348336
H          -0.94016963202010    2.22553695124811   -1.04327968511295
H          -2.14334081403887    0.39579928949170   -1.53387739016231
O           0.70286571487702   -0.58472990423892   -2.88142958138203
H           0.91404656593396   -0.05797675095267   -2.07796432046624
H           1.40285896806092   -1.23612240281649   -2.95396637063514
H          -0.81902595603390   -1.05173165582220   -2.41530432892345
O          -1.01438545707164   -1.70001539501720    0.67115072760081
H          -0.98046021173635   -0.73676043315327    0.83432591493506
H          -1.31599092934657   -1.78113478804172   -0.24428869539629
H           0.67293416953545   -1.85359469914631    0.95296639607859
N           1.25773379152123    0.27382318202687    2.89015832306024
H           1.41442981228005    1.15278303804894    2.28123778142204
H           0.26440934099193    0.26006997657332    3.11463736977274
H           1.46678281910207   -0.57053707074244    2.20999623050254
H           1.83494661104532    0.26922635551065    3.72523749564617
