    26
        -50.46814292  Gyration_radius:  2.48783248511 Dipole_moment: 4.361
 S           1.36582682190120   -0.18535836545287    0.15142265161957
O           1.93657820622881   -0.55715674271989    1.52737362881065
O           0.49925501321929   -1.27770094667034   -0.30990964172515
O           0.54057760203684    1.03131897496746    0.33235101555735
O           2.46219056885357    0.04862651038446   -0.75329120143952
O          -1.50970659865196   -1.90223965950512    1.23737729038806
H          -0.72233727725108   -1.69538636420699    0.67647183768722
H          -1.45713779535409   -2.83960619480968    1.43181779573557
O          -1.79179802016127   -1.12174722937047   -1.66143014369167
H          -0.90454407899614   -1.35129793137842   -1.31198884087118
H          -2.38466339588942   -1.26453496939683   -0.91656230756751
O          -0.39362922040803    2.06377223416050    2.59570553905277
H           0.30216548863805    2.61032590348491    2.96457031765711
H          -0.07533913910504    1.77508169715396    1.71520274762728
O           1.56948301131255    0.44893949331365   -3.15704961433524
H           2.03120468753976    0.34166749755456   -2.28474625811273
H           1.57627387706137   -0.42281506783612   -3.55733564944438
H           0.16842340739037    1.01634837988647   -2.59714080675370
O          -0.07131535028178   -0.56131310781220    3.10147801051845
H          -0.31731413433512    0.38704063495476    3.11130344598882
H          -0.76418454962543   -1.01321467592604    2.58059669961716
H           1.16643294421772   -0.58868250505137    2.19070031198405
N          -0.63791160563942    1.24309679488312   -1.95012964733035
H          -1.29829872344114    0.42412292733955   -1.94992778968336
H          -1.09169406209343    2.11638267600267   -2.19389425204578
H          -0.19853769716547    1.27433004604997   -0.97296513924308
