    26
        -50.45300967  Gyration_radius:  2.43475329069 Dipole_moment: 5.199
 S           1.70756340904035    0.70895731972299    0.98478957715195
O           0.66982339440476   -0.21261891505552    1.66511873220611
O           2.73089695437231    1.04947538571205    1.89971110577935
O           2.27740424247962   -0.13470827986869   -0.16684362480265
O           0.98147581879732    1.82647023548553    0.40008546333463
O          -1.03876035006723   -0.05425688161557   -2.07826825247171
H          -1.66430200529938    0.11805751872822   -2.78289687705915
O          -1.47006965113238    2.71050798384034    1.00280633123073
H          -0.53937419244499    2.57665873508394    0.73707078799074
H          -1.44657962728841    3.14715052609205    1.85547376629047
O          -1.60645722891242    0.07997838722863    0.57754237821291
H          -1.77340515073206    1.02949668797257    0.76347087532025
H          -1.48714957277835    0.02422033511423   -0.39195959402797
H          -0.24907007172466   -0.10908307517306    1.22148321343682
O           1.06214323607973    1.50545320750596   -2.21874148364389
H           1.86690795709090    0.98999403170040   -2.31829983681581
H          -0.28493418199835    0.58338317990854   -2.20609277359742
H           1.05460504699028    1.79130959520784   -1.28098949357142
O           0.68033307679599   -1.88620749027422   -0.97589740834131
H           0.20162848292874   -2.28892793384748   -0.19919290573819
H           0.00884831373710   -1.40509651894852   -1.48727661718332
H           1.62969994155574   -0.88538673182611   -0.48966967445321
N          -0.69643735878816   -2.77212122962613    1.13816839359366
H          -1.51702725479920   -2.17728902324646    1.14836670961978
H          -0.10955952059519   -2.48645677373770    1.91274645910403
H          -0.98820372770949   -3.72896027608701    1.28929474843553
