    26
        -50.45538176  Gyration_radius:  2.56581243139 Dipole_moment: 4.088
 S           1.04130490392818    0.12156835731578    0.03361765343014
O          -0.22532965789846   -0.19779574531960    0.73775040639563
O           2.10963312347739    0.32471842169063    1.13022787923055
O           1.43265943902140   -0.96005504544727   -0.83669734244909
O           0.89504549981621    1.40547696953984   -0.64807258916209
O          -2.64988976508340    0.61156499992741   -2.04690928111442
H          -2.92162123184479    1.33363703490753   -2.61716200217156
O          -0.71238217352328    3.28855960530188    0.10037287840631
H          -0.00343727013019    2.68290397037178   -0.24022596953271
H          -0.34851461542910    3.71542317181261    0.87816773265756
O          -2.18794860506975    1.23443535269201    0.36731292668424
H          -1.36391616582739    0.57242971564054    0.58066116373825
H          -1.73372304992002    2.14947051806601    0.30310285332637
H          -2.47152933878067    0.97585953231692   -0.59376659519428
O          -0.16909041960139    0.15242709690606   -2.72409443506998
H          -1.74378682042795    0.33766982584330   -2.36110956138283
H           0.27243762626622    0.83467439227678   -2.18700448497248
H           0.27036757774528   -0.65599796889444   -2.42784958766016
O           2.85032457237097   -2.10816674556922    1.13817916555241
H           2.06440546605820   -2.49206494609794    1.60035758669115
H           2.59537322710029   -2.08244024283454    0.20342576472308
H           2.52327697433289   -0.58954686617578    1.25897975748242
N           0.39140180934141   -2.69427483926678    2.05662874030767
H           0.14104132875804   -2.65315718398388    3.03650943677722
H          -0.11205258078894   -3.46871478277771    1.64249836020063
H           0.05595014611958   -1.83860459824030    1.61509955310639
