    26
        -50.45538182  Gyration_radius:  2.56580008575 Dipole_moment: 4.083
 S           0.65064122982176    0.36478788462676   -0.73687040582319
O           1.49506656976803   -0.79290609790598   -0.90133543695962
O          -0.72108897123548   -0.03375607295796   -0.33464431350081
O           1.16334355661699    1.33867765609184    0.22401402993271
O           0.51085619298671    1.10740759639213   -2.08377155842416
O          -0.09571929908992   -0.61221163231984    3.34818592161704
H           0.21421183688398   -0.15850774141818    4.13460769573584
O          -0.31588387819214    2.92703465713408    1.63024090752898
H          -0.64785615403041    3.62473789363112    1.06226741211168
H           0.35923090737276    2.43278089294762    1.09587946124513
O          -1.60313097711137    0.74231897722265    1.82400914478925
H          -1.20205102573766    1.68359437189114    1.85428513378474
H          -1.28089934966127    0.37579153161661    0.86239252009753
H          -1.06789238703740    0.16998171397500    2.49986764746165
O           1.98231761289281   -0.65257586132926    1.76550129577526
H           1.90091340828317    0.23481522021889    1.37203690172617
H           0.70701773764126   -0.74477065653689    2.77146240457490
H           1.98438116931282   -1.22242856881459    0.98471837530625
O           0.81947368548431   -0.98441553740352   -3.49640526666167
H           1.37213748721385   -1.27889185432888   -2.75660872478356
H          -0.06327053160021   -1.39799662893240   -3.32808815908435
H           0.61764029613402    0.38771665485620   -2.78694040127305
N          -1.49848167474366   -1.85116360895677   -2.44305749356965
H          -1.31944510891102   -1.25449555772703   -1.63589780099312
H          -1.55603805128484   -2.80539857167534   -2.11006946315944
H          -2.40547428178964   -1.60012667030735   -2.81577981744789
