    26
        -50.45538169  Gyration_radius:  2.56580010555 Dipole_moment: 4.091
 S           0.37667502267201   -0.46326888324154    0.86346661035465
O           1.73953675649783   -1.01468566120185    1.33638629386206
O          -0.46893471518481   -1.62252462498290    0.58866623087972
O          -0.16272702022504    0.42929728453534    1.85995769548798
O           0.63529253431509    0.25742810596829   -0.40778819830934
O          -2.89415120146062    0.31768694409907   -1.76016858596708
H          -3.61001794423616   -0.26845784412084   -2.01378950171147
O          -0.56864087104825   -2.86248276084735   -1.67916604742478
H           0.22534020017125   -3.39093064021920   -1.77863913044159
H          -0.56293682351125   -2.52733880038396   -0.74483165353527
O           2.30725205299611    1.03289316723216    2.73357913908562
H           2.11662925359350   -0.29058836444378    1.93396759296029
H           2.51403350804269    1.65522727413139    1.99294840330963
H           1.34660118758132    1.09674061474697    2.84515190858282
O          -2.61057755015449   -0.08002839303090    0.80587213207670
H          -2.04473707868638   -0.87258825882950    0.78436864086828
H          -2.08109646302352    0.53399723136413    1.33227600253367
H          -2.83940625731798    0.27230474560941   -0.76532126276083
O          -0.56862764144311   -0.43428478970787   -2.43561102301851
H          -0.00166511610074   -0.08700928044828   -1.58654379148583
H          -0.58772044158478   -1.44817861008818   -2.29691230446896
H          -1.52737442182377   -0.09142646194000   -2.25081044306825
N           2.38588145446704    2.40264178839250    0.42043405468750
H           1.92306191330908    3.30151244575150    0.37067285798282
H           1.75283470477203    1.70871941880144    0.02376972210796
H           3.20547498740441    2.44534436288859   -0.17193533258700
