    26
        -50.45538167  Gyration_radius:  2.56583988734 Dipole_moment: 4.091
 S          -0.42355356476424   -0.29051093127715    0.91498126739890
O          -0.17693697966938    0.00784807343208    2.41008899005741
O          -0.47912751659840   -1.71617187681765    0.70283978208970
O          -1.65196555984185    0.40992925199268    0.54774352663256
O           0.71394742900553    0.31035356794260    0.17532914670331
O          -0.85290768326510    0.45548980054113   -3.26215779197001
H          -1.60433414322625    0.82772457332009   -3.72823422381879
O          -1.75560740425431    2.86010046999915   -0.27409543008997
H          -1.61911242950453    3.44400541648976    0.47425315343271
H          -1.85943223040794    1.94732693935266    0.10210741144835
O           0.25169505861906    1.98249122032202   -1.56559127271394
H          -0.53267128721829    2.47936573304541   -1.13445240078601
H           0.52387433828747    1.26303530123965   -0.80979494449406
H          -0.14570604882790    1.40480946421679   -2.32669253865101
O          -1.91473133310691   -1.19747381925175   -1.54045104834684
H          -1.22000630510842   -0.26388308758817   -2.67684704574233
H          -1.35599488283795   -1.83923717408675   -1.08167936865152
H          -2.13269123048320   -0.56945043262027   -0.82849892554085
O           1.10201297443473   -2.14929800929708    2.83323170644836
H           1.94262646015852   -1.90720450342234    2.37126977408184
H           0.34226210711692   -0.79140143577741    2.74939302363501
H           0.53241780750617   -2.50378304967457    2.13367503010235
N           2.98003703815006   -1.18554164650912    1.16639950587983
H           3.36169683950161   -1.79775028356555    0.45625374753596
H           3.71915532593556   -0.56142877886810    1.46433832777974
H           2.25505320040334   -0.61934480315820    0.72659059763071
