    26
        -50.45538181  Gyration_radius:  2.56579663489 Dipole_moment: 4.086
 S           1.02151297044057    0.14402413350787   -0.19141529959262
O           0.71861186907063    1.47751733953417   -0.70579472868826
O           1.21144438252963   -0.84896389317497   -1.22011352735436
O           2.30900188713955    0.27926561622561    0.65075434073115
O          -0.05172891743437   -0.26598568949804    0.74794010613251
O          -3.04784874127455    0.71908421266291   -1.33523008489039
H          -3.44480190974333    1.48063708063107   -1.76282080825130
O          -0.68607762822241    3.24870431312133    0.55086210218398
H          -0.07009987603889    2.69209398198836    0.00662018767709
H          -0.15722385717396    3.61634796594890    1.26131877603754
O          -2.05382341804916    1.14362202844878    0.95855948075371
H          -2.54664629669848    0.96170678895456    0.06694319622134
H          -1.19969712209746    0.48638251838247    0.92068516252093
H          -1.63019161160421    2.07165895779534    0.87585183798609
O           3.04418392721376   -2.12611295650169    0.27603761469424
H           2.38491199530228   -2.56750598566848    0.86692677942932
H           2.58467110650688   -2.02711881823181   -0.57157995854054
H           2.74561985953646   -0.63215560262548    0.60152747745135
O          -0.78255020822224    0.38062005352467   -2.59139061810300
H          -0.28394467741334   -0.43933605178132   -2.47540898609649
H          -2.23523852929560    0.49533427327110   -1.86837480353641
H          -0.23382209755593    1.02487891898975   -2.10897281028986
N           0.85937165455281   -2.84968366240915    1.66771283641486
H           0.83662795225689   -2.89812002674170    2.67850728253672
H           0.27933458951462   -3.59859607258839    1.31070145884828
H           0.42840267675060   -1.96829943372992    1.39015297568844
