    26
        -50.45538176  Gyration_radius:  2.56581853239 Dipole_moment: 4.086
 S          -0.26939300450397    1.01277314125164   -0.04286736065781
O          -1.19738851135410    1.95850825343955    0.75056854887791
O          -0.92528942229025    0.76492544758950   -1.32462682948652
O           1.04228400422194    1.60062935200675   -0.16258757580337
O          -0.21211497446390   -0.25684187541784    0.72326585453747
O           1.01252626619898   -2.53578673628677   -2.03255175783277
H           0.77334945434444   -2.84734748442814   -2.90783314914176
O          -2.65119324719815   -1.11389302140303   -1.74984342317491
H          -2.06861494880639   -0.31188874898541   -1.69648998804498
H          -3.48414363623063   -0.86682187227981   -1.34396002312060
O           1.40456505592414    0.02796003072418   -2.34490763347400
H           1.84102140458749    0.53797226556082   -1.64934329313955
H           1.27990968120824   -1.58130228309717   -2.14284273994091
H           0.48386974215744    0.33959010223330   -2.28095693077022
O           0.68731530365950    2.98804091544556    2.11276417776694
H          -0.57824433572544    2.46939257532455    1.36637220593887
H           0.86149828177847    2.22105426718863    2.71272237193193
H           1.21982629570771    2.80649590707420    1.32354792339378
O          -0.89889688432638   -2.34421051402248   -0.37737347597496
H          -0.59274622342211   -1.46488451074067    0.16650973821936
H          -1.68039305636816   -2.00140835735063   -0.94260840001294
H          -0.11473455097231   -2.51789424068786   -1.02994225775987
N           1.01930455134968    0.55441101676016    3.20883092463835
H           0.60962012635873    0.15285556116334    2.36589200086891
H           0.48100368640495    0.22385182855885    3.99972777671491
H           1.95705893175506    0.18381899039149    3.29853333539011
