    26
        -50.45538181  Gyration_radius:  2.56577890503 Dipole_moment: 4.086
 S           0.85978211966520    0.35326403172396    0.48659536996301
O           1.61704594830556   -0.87300042384263    0.54427885122052
O          -0.59789083967473    0.07692355862851    0.52066440410834
O           1.16799831571502    1.21861828868653    1.72809278160411
O           1.15949877626384    1.17868263664393   -0.68104097502126
O          -1.08513252439216   -0.88474273335471   -3.10247628568135
H          -0.97449501963654   -0.53927108657660   -3.99060951258214
O          -0.51967937548191    2.79341652743147   -1.80467384722197
H           0.23544992969550    2.27577723432342   -1.42090095321119
H          -0.61993525092242    3.57020519025857   -1.25138037926014
O          -1.98470178808755    0.75610746009305   -1.39124072207092
H          -1.43609153937668    0.44080501093766   -0.51794767997332
H          -1.53219233267967    1.64087875697891   -1.63645029887639
H          -1.71061885016943    0.07137052333783   -2.11713496677282
O           1.34472639651441   -1.01543671669017   -2.15231561499487
H          -0.16559340111082   -1.05381574766392   -2.75531343051127
H           1.45063661660263   -0.09388210954736   -1.85506514341048
H           1.51948473662747   -1.51247789720146   -1.34186980250574
O           1.68671189595171   -0.76703085127470    3.22979561112043
H           1.98214670972771   -1.18297459573530    2.40570648736106
H           1.40806792566612    0.55379429422469    2.45203585208904
H           0.76114207893229   -1.09275148405496    3.35557101164362
N          -0.89764976106150   -1.45768838436621    2.95093160246548
H          -0.90435714865636   -0.95514546120041    2.06379546891679
H          -1.63904978937392   -1.07710848918767    3.52544030024262
H          -1.12530381905127   -2.42451751260312    2.75551188128587
