    26
        -50.45538180  Gyration_radius:  2.56580210343 Dipole_moment: 4.086
 S          -0.73062724775886   -0.32938912398217    0.67689916126529
O          -1.70966843466381    0.52311822368374    0.00665690343601
O          -0.99395014847183   -0.19412188074207    2.19266551444450
O          -0.80264185187655   -1.71686330392222    0.28931342337278
O           0.62839504826078    0.21673250535626    0.43794679254087
O           0.35189840706097    0.83895231600554   -3.28024645880092
H          -0.16903276864267    1.32742991800745   -3.92086993411674
O          -1.36448280080435    3.03667820477131   -0.49565507778890
H          -1.65018598758775    2.10831499147491   -0.29079381215478
H          -1.45697122832820    3.53117934214347    0.32072402606322
O          -1.33887876466081   -0.85068752035290   -2.22661580992365
H          -0.23824070239798    0.10899347974178   -2.94335573333080
H          -1.01482350063481   -1.58638581236486   -1.68985764184620
H          -1.74737303830781   -0.27241178707615   -1.55757418742430
O           0.90282315349211    2.08119001575297   -1.13949198210366
H           0.85098602438615    1.27073383132128   -0.42998845721338
H           0.75445321739357    1.62023800487573   -2.05412005290849
H           0.05251562276152    2.61414385943960   -0.93806279284126
O          -0.08193928432484   -2.49953114371180    2.75842128275237
H           0.87995786801607   -2.30308535061216    2.63695267307073
H          -0.67643271063818   -1.06961625670175    2.58813817640285
H          -0.39802701434373   -2.73014234865394    1.87168317871838
N           2.31272117915022   -1.58386902406250    1.94541004437251
H           2.87608162862361   -2.16468779178640    1.33712571050423
H           2.94201524823562   -1.06661638809970    2.54623706131134
H           1.82142811606386   -0.91029698050536    1.35845796223834
