    26
        -50.45538179  Gyration_radius:  2.56575835299 Dipole_moment: 4.089
 S          -0.24173478152262   -0.78132164251428   -0.65748390850008
O          -0.63391546313502    0.48104077933541    0.01695287960287
O          -1.29390707975791   -1.03072090018556   -1.76021791668684
O           1.03497976949042   -0.57922503140560   -1.33841301493654
O          -0.23830360988683   -1.88247691627405    0.27406549485974
O           2.67554434087040    1.31879547606441    1.63869006845240
H           3.59373320300651    1.49276898475746    1.42177620636479
O           1.88999923021194    1.70295000707630   -2.20433548916789
H           1.64270161235795    0.76510678870735   -1.99270555996287
H           1.40303735444656    1.93559415612605   -2.99700517881558
O          -2.81521336691687   -2.42128359678429   -0.27053731285724
H          -2.00251226034473   -1.59985613569641   -1.31563086695500
H          -1.98757848822080   -2.67069229604351    0.16795348639003
H          -3.17904981039395   -1.68660079975308    0.28303033512002
O           0.96435845919053    2.34708899626098    0.07517025344128
H           0.21439466485941    1.57222906053760    0.07760156615215
H           1.66672776756871    2.01460818774185    0.75848544015493
H           1.38791700304487    2.25065386807912   -0.85165336013249
O           2.29905959752794   -1.16265775186567    0.91421434096896
H           1.50749566033406   -1.63518168743531    1.20506192215950
H           2.12092559283452   -1.02770875946045   -0.03390629981847
H           2.53393544366532    0.34448135833113    1.47943672056790
N          -3.20085349675802   -0.18141868495632    1.16770099724649
H          -2.29577372740909    0.15057999368994    0.83571411488676
H          -3.15426675413018   -0.23541441347700    2.17750163634262
H          -3.89170085097732    0.51866093913533    0.92853344517545
