    26
        -50.45538177  Gyration_radius:  2.56580755837 Dipole_moment: 4.090
 S           0.58273077789104    0.86287123965286    0.13014594915972
O           1.67233511302391    0.21453903162233   -0.59571327989247
O           1.22830366707256    1.61018543646238    1.31751150709214
O          -0.18399451113574    1.78564501659460   -0.67057951654745
O          -0.29289837403232   -0.18071424646126    0.71882715796192
O          -0.62365621253966   -2.42343267440502   -2.30650882073805
H          -0.09445386260595   -2.93862734799495   -2.91879175803277
O           2.59829905206318   -2.13923073078161   -0.05517548610256
H           2.38987350083096   -1.20268317611763   -0.30984602925237
H           3.12898472063481   -2.08787785845135    0.74189283826522
O          -0.59988899262930    3.37213409834001    1.45977094016466
H           0.60036286433359    2.38004187438066    1.50901719672135
H          -0.67448387097526    3.22511614272722    0.50466055611553
H          -1.30877793684988    2.80666614115794    1.85516462846325
O           0.11572687422921    0.04556850110072   -2.73137781006811
H          -0.44642712731582   -1.46666153313155   -2.52555114392975
H          -0.40933169822977    0.77383716077018   -2.37301909262197
H           0.91309022374804    0.07286686416829   -2.17252008517881
O           0.09220589509461   -2.53383948875510    0.12349690872064
H          -0.24778150851903   -2.57314017523772   -0.85315314711547
H           1.11472099749747   -2.54321530543490    0.07894918727210
H          -0.12461480610913   -1.52368484294224    0.43246707173520
N          -2.26010449114267    1.37389549364568    2.15584407197373
H          -1.64273015106775    0.73019646577468    1.66176747744437
H          -3.17064475421260    1.32081596778454    1.71668058579446
H          -2.35684538903096    1.03872795546000    3.10604007259448
