    26
        -50.45234091  Gyration_radius:  2.45894282166 Dipole_moment: 5.680
 S           0.12155937928800    0.42631553820479    2.13711681484255
O          -0.23852125039222    1.38862959875798    1.10711906959482
O          -1.10169526683959   -0.41741217762778    2.48063992602759
O           1.10907913126408   -0.58135252517041    1.48363362931235
O           0.70147888386423    0.97423344095171    3.30665305095786
O          -1.26402882892965    0.11179315142929   -1.90721685063525
H          -1.79476310363829   -0.00752423121435   -2.69568610336460
O           1.67447886060400    2.39363092677418   -0.41033401801884
H           0.99011434418181    2.12476554234853    0.24125773979208
H           2.41976721908479    2.71435799528436    0.09894879538314
O          -1.70434516915677   -1.48835950732686    0.28561608384072
H          -1.64206062701352   -0.86886985351406   -0.46376815851526
H          -0.97648483693061   -2.14883856076330    0.14956688688755
H          -1.42428009763136   -0.84853939702851    1.60280377662122
O           1.30465410865515   -0.22035651987603   -1.04655026144781
H           1.60941673101813    0.70756072842044   -1.03159135347475
H           1.16510421643287   -0.46594256358522    0.47541842169060
H           0.40814156462105   -0.18927618290676   -1.42949907387436
O          -1.28361562985827    2.60040102175930   -1.05873009940035
H          -0.44003057998569    2.99554732804046   -1.30211785477125
H          -1.34982734492462    1.06582793390285   -1.64285260946403
H          -1.16862659315307    2.31439524255668   -0.13734133975788
N           0.46770769461805   -3.04879366924799   -0.05842911710229
H           0.45657351369213   -4.04520214978926   -0.23417088961129
H           0.93394021011806   -2.88426203799957    0.82611480035592
H           1.02626345100588   -2.60272908238002   -0.77660125588414
