    26
        -50.45234079  Gyration_radius:  2.45875469543 Dipole_moment: 5.678
 S           1.92469862821018    0.89055139995484    0.51283479192893
O           1.10989101587808    1.25278008631053   -0.63684257987215
O           0.94453862322681    0.44654835426439    1.63511831276604
O           2.71535943171363   -0.37187735458565    0.18523603012892
O           2.77898691170432    1.90948462251277    0.99909419045863
O          -1.27501035349600   -1.00775311122022   -1.61246675142802
H          -1.79878938156814   -1.56438620966099   -2.18987876203772
O          -1.02720348493463    2.75374048980362   -0.24791519623699
H          -0.84315269305754    3.52652942025901    0.28741324479668
H          -0.16252453992562    2.31471817683512   -0.40538859534284
O          -1.46765593388859    0.28132423464926    0.78515772455352
H          -1.47647898436057   -0.25642141150930   -0.02855926262071
H          -0.00858386498991    0.34613201947817    1.29654445068788
H          -1.57275609370052    1.20445226607140    0.48361645586422
O          -0.49230747056055    1.20322330764392   -2.80094339701612
H          -1.04177099163508    1.92034605601767   -2.46807338952137
H           0.31561103054154    1.23689031024125   -2.26232432180425
H          -1.00110798428273   -0.21535497809753   -2.14590758823143
O           0.92334131844835   -2.05836601912318   -0.33674485359100
H           0.51951029637869   -2.24087486118882    0.55103300452241
H           0.20613858702798   -1.68648419867412   -0.88132219933846
H           2.03024160390889   -1.09243061376152   -0.08331327550779
N          -0.22599154695315   -2.25384947450931    2.09472052046044
H           0.41057469100609   -1.67241130041790    2.62729060950514
H          -0.38024733969091   -3.11247667249343    2.60735297805957
H          -1.10531147500501   -1.75403453879565    2.03426786880658
