    26
        -50.45234086  Gyration_radius:  2.45883457133 Dipole_moment: 5.679
 S           1.79843635515142    1.07507770471134    0.60971485258516
O           0.96885174498061    1.40703411358725   -0.53849916009719
O           2.52010613208759    2.15528888390767    1.17248875679618
O           0.85544494084861    0.45838993112888    1.68106845045981
O           2.73564825920685   -0.06787103523401    0.23331378734409
O          -1.11963106209734   -1.05384048121061   -1.69696074295966
H          -1.56396878588143   -1.63316838658440   -2.31707654911357
O          -1.33556996215310    2.62719262479534   -0.12359887185583
H          -0.42269671104354    2.30039948699074   -0.28214400397688
H          -1.25321068181844    3.38469446778535    0.45700306896046
O          -1.50458245197562    0.06557462475931    0.76205980094598
H          -0.07287259562153    0.26830104726771    1.31314244211269
H          -1.71066614454325    0.98618299696588    0.50880281781101
H          -1.43591168799696   -0.42234518851631   -0.07971862196454
O          -0.57526160506556    1.29656839552325   -2.74225611317134
H          -0.92919842892005   -0.20609190605946   -2.17917443738514
H          -1.21037208416740    1.92581642638393   -2.38485761142754
H           0.21287858872852    1.39197387836729   -2.18220731638110
O           1.16148544877210   -1.91597207587917   -0.42589497549715
H           0.76530142930653   -2.19421494628323    0.44027752835288
H           0.41605871803926   -1.59860123653578   -0.96707422254177
H           2.14379169758291   -0.84539674100316   -0.09188960623465
N          -0.00143462390603   -2.38095017554829    1.96198519661870
H          -0.93169732048686   -1.98294453301701    1.90728631996217
H           0.55338707316910   -1.76157283090501    2.54122058874547
H          -0.06431626220073   -3.27952501540186    2.42298862190897
