    26
        -50.45059457  Gyration_radius:  2.46316066748 Dipole_moment: 4.138
 S           1.42631026220554    0.78436957087399    1.16379183723475
O           1.15162214096669   -0.66481166773369    1.65225377007777
O           0.24509716579351    1.57885301719223    1.74557309252213
O           2.66257898379049    1.23044782504882    1.68704464291484
O           1.30982827297522    0.79461400355653   -0.28193920214504
O          -2.04449717579715   -0.32993751271130   -0.89410110663817
H          -2.76399276972937   -0.62236330674327   -1.45422880599135
O           0.55598726862096    2.97656378653459   -1.63748056089084
H           0.97820826274367    2.16259762426247   -1.30254007534039
H           1.14932110188673    3.69874198805572   -1.42551644902117
O          -1.41578595504829    2.16384049656100   -0.03405354681817
H          -0.85083239652167    2.59860997934732   -0.71035243439530
H          -1.71238774110055    1.32174551137427   -0.43492413713158
H          -0.45063313546624    1.84197798458227    1.01017167784103
O           0.20385247667361   -1.15864525658444   -1.79928097656479
H           0.74528795921355   -0.44432967129670   -1.42235293625035
H           0.45211387666288   -1.96220950016942   -1.28543228991086
H          -1.18961395048491   -0.66606187593332   -1.32237188070786
O          -1.41303251984810   -0.78368595256572    1.66001858027699
H          -1.66536400343432    0.02568123068746    2.11321352215840
H          -1.73287820010781   -0.69745427701505    0.73430978422363
H           0.15179829552934   -0.77862959361961    1.66604896620454
N           0.95745237088420   -3.12993517323457   -0.07322365322961
H           1.32915410167686   -2.50051841252443    0.63124320579408
H           1.69674914319419   -3.76442624071139   -0.34749761199912
H           0.22365615472194   -3.67503456723271    0.36162657778751
