    26
        -50.45234090  Gyration_radius:  2.45887511085 Dipole_moment: 5.682
 S           1.23747272008548   -0.20963533826451    1.78559665206151
O           1.89530398143542   -0.18706077420697    0.37693613873369
O           0.86264058352260   -1.67230635922613    2.00047309112618
O           2.17331929467795    0.21972315673409    2.75736676366828
O           0.02185887248399    0.58439864232200    1.69351328389380
O          -2.10056535958062   -0.13767487403090   -0.90212594933896
H          -2.91761415188086   -0.32294148785323   -1.36657713563125
O           0.12313648247388    2.91241538019561    0.45120793283893
H           0.12145758775420    2.11679894216604    1.02748843974978
H           0.85542859812045    3.45581328109414    0.74471829851275
O          -2.45981131717183    1.47357290769149    1.14441121998997
H          -2.14161221219822    2.34494935642023    0.88656980963585
H          -2.33122046887326    0.45026411579520   -0.13494858902177
H          -1.71877916337531    1.06938398105845    1.62553545264225
O           0.37459167943152    0.91292163373197   -1.36908949456866
H           0.28162518572749    1.78632904682040   -0.94173514657167
H           1.28360144201917    0.21664647626233   -0.32711939134635
H          -0.51023041153821    0.50598120674144   -1.31535094852335
O          -0.53241422362507   -2.21759409463414   -0.02050347365541
H           0.24724118565523   -1.94141413178576    1.21978781040491
H          -1.15665896334145   -1.50525927963834   -0.24881453920010
H           0.13372185014552   -2.23696435914679   -0.75562581288567
N           1.35117168406133   -1.98507918090025   -1.93594238782171
H           1.16127705469936   -1.11283683499254   -2.41543104927864
H           1.57921481094329   -2.68766593525819   -2.62752064955004
H           2.16584327833813   -1.83276546709778   -1.35282032586492
