    26
        -50.45234089  Gyration_radius:  2.45882774425 Dipole_moment: 5.680
 S           0.90329712643158    1.95475718054160    0.35407816931990
O           0.89865329694663    1.24873178263271   -0.91805633219975
O          -0.40176399760918    1.55036791171758    1.09611941009284
O           2.02032584756581    1.39639436749519    1.22967912340910
O           0.98690026537854    3.36540664021669    0.26746863106770
O           0.28416278240940   -2.12336259205402   -0.80902904623007
H           0.38631864012226   -3.05875388804764   -0.98854943322260
O          -1.32779625903588    1.21477599083967   -2.33703696340539
H          -0.47024747738282    1.34566209147247   -1.87588561534156
H          -1.71483952146244    2.08525612218046   -2.43765702935575
O          -1.65136524208479   -0.32540532893608   -0.12411387765401
H          -1.02452918160711   -1.04852399354083   -0.31269525538152
H          -0.88461825302277    0.78350724811615    0.63575021663500
H          -1.78383135316550    0.12856952667258   -0.97882296835907
O           1.02808838103262   -0.63108096704968   -2.84203743340124
H           0.22915121524789   -0.31088347507625   -3.27353641433861
H           1.29687075178735    0.08923623529529   -2.24802126794151
H           0.61119128456849   -1.63787301670214   -1.61203593862943
O           1.42638914633213   -1.03850765810877    1.44513210671100
H           1.12429815434669   -1.42653497398391    0.60404857012281
H           1.85465867769429    0.38363052480221    1.31637659580901
H           0.62957564660981   -1.02511368851344    2.03627442522352
N          -0.86655119171018   -0.81509747885007    2.84646286148030
H          -1.07418185483308   -1.28610823978804    3.71759905813661
H          -1.61792297905355   -1.00313168532458    2.19318084501723
H          -0.86223389551408    0.18408136400395    3.01530756243317
