    26
        -50.45059469  Gyration_radius:  2.46311935977 Dipole_moment: 4.141
 S           1.09671255260132    1.21968736125531    1.14631306798102
O           1.61320930449921    2.34627857850286    1.82836952399650
O           0.43253576950976    1.49198207093648   -0.11404313504491
O           2.18384864346971    0.16109403855040    0.89645131473597
O           0.08669541194946    0.47812508339764    2.06507229406926
O          -0.50980149161193   -1.75472319728244   -1.32231914716965
H          -0.95973543772708   -2.35175309764945   -1.92067724330500
O           1.77484800990114    1.68307837360127   -2.42226662017862
H           1.17933662661694    1.78805042445817   -1.65590386348777
H           2.44851155277637    2.35965888543216   -2.33903920471899
O           2.01790476053505   -0.77721768855024   -1.41868421765668
H           2.02227052993302    0.03445987657358   -1.97252861908506
H           2.13504065488067   -0.23008590755162   -0.07244876996774
H           1.12038152741357   -1.15702345633623   -1.50820474910880
O           0.23868495722674   -1.94614133382097    1.23336858601266
H           1.18656554628480   -2.10067052078825    1.19123101903944
H           0.09190353750399   -0.48639786664766    1.77787079349048
H          -0.09204959717716   -1.98084746865819    0.30811370757248
O          -1.88597332715463    0.37538580576806   -0.96125887724485
H          -1.09133906754372   -0.92808443797230   -1.24704427406915
H          -2.37056178566394    0.27385143255260   -0.10904609513545
H          -1.13576873434637    0.95816018589244   -0.75373697265415
N          -2.86846493659421    0.13862968971857    1.57090094226104
H          -2.02127949459077    0.45736095634632    2.03054349074581
H          -3.06579330123783   -0.79498727106235    1.90872762185602
H          -3.62768221145210    0.74212947333337    1.86023941706618
