    26
        -50.45234090  Gyration_radius:  2.45889694629 Dipole_moment: 5.682
 S           2.07978589682453    0.62375080124293   -0.22109642068549
O           1.10256103808871    0.55793856716762   -1.29689990799003
O           2.63496442584779   -0.77362871211180    0.03417778905187
O           3.12790325682062    1.55730089650850   -0.40645151577305
O           1.29516672851959    0.96583437934774    1.07690060916061
O          -1.67814300167921   -1.37111824480983   -0.74111829457838
H          -2.36775446684122   -2.01637780495835   -0.90141364076056
O          -0.72501866930771    2.45668292935096   -1.46335335223792
H           0.03417363284020    1.83338149538138   -1.47982849925614
H          -0.34985617104056    3.33630765189073   -1.40672280989037
O          -1.24001288552532    0.90260467751335    0.70343552202683
H          -1.29345906575928    1.57585969797426   -0.00222403996041
H          -1.47253063735750    0.05962732256357    0.27128701527615
H           0.28908314702368    0.90882271635207    0.94447689075488
O          -0.88842031675835   -0.18496981885046   -2.95094626503683
H           0.00754879707659   -0.06285927854637   -2.59558469414201
H          -1.42292472385794   -0.99543084698507   -1.62494703456227
H          -1.27355295988701    0.69744400482997   -2.95955091099496
O           0.58937227099141   -2.11228457888724    0.62708199213171
H           0.34998661130707   -1.77126701641530    1.52760413955659
H          -0.17244953905205   -1.90610429098423    0.05582858424917
H           1.83023916576439   -1.38276129592875    0.23884652252047
N          -0.07252160803297   -0.90795765675053    2.94708217235961
H          -0.22494055379651   -1.37494262961021    3.83170620928724
H          -0.88033571172611   -0.33020096702305    2.74612222799748
H           0.72113534952255   -0.28565198825812    3.04558772149327
