    26
        -50.45234082  Gyration_radius:  2.45880578308 Dipole_moment: 5.680
 S          -0.89518884887983   -0.33351787813734    1.96177536099930
O          -1.55142759868026   -1.64900942085467    1.55524913232029
O          -1.14214738113664   -0.04653989481888    3.32598996182798
O           0.62413484700419   -0.58144926273448    1.74391220333693
O          -1.29007953740003    0.70472865377643    1.02221140054352
O          -0.35253590401997    0.26824525921071   -2.24629933817864
H          -0.42024330474517    0.23507141031132   -3.20123974166967
O           0.24912789349096    2.83569959606169    0.77355538029473
H          -0.38655250265205    2.11242193830179    0.96842880706844
H           0.48390564624307    3.22243360840104    1.61795036918392
O          -1.93410172590831    2.08791748735061   -1.19689439918864
H          -1.38518907661481    2.83779228665434   -0.94498924395473
H          -0.99778740651533    0.95670871782187   -1.93469400468009
H          -2.03481801793652    1.56746631301253   -0.38270226187683
O           1.51358337279258    0.68484771354948   -0.29921633872439
H           0.97610152270026   -0.10945747041574    0.91533838282103
H           0.93482675734639    0.49576004966380   -1.06128269361792
H           1.27751748161594    1.58942537505820   -0.01617178625450
O          -0.68709159961566   -2.03179845553786   -0.77600908172678
H          -1.26853948316090   -1.83650606731857    0.58300338449736
H          -0.67910128299727   -1.21787788054005   -1.31142489977989
H           0.26591735541743   -2.26498821161236   -0.62757687086666
N           1.92686645948125   -2.39879935146385   -0.22552560175809
H           1.88803131757894   -2.38480308035338    0.78699416604589
H           2.40006002527400   -1.55145681108128   -0.51677400918941
H           2.48473099130512   -3.19231463431712   -0.51360829747426
