    26
        -50.45234089  Gyration_radius:  2.45887225549 Dipole_moment: 5.680
 S           1.45192468696152    0.48264103473537    1.55617209905513
O           1.38452696396366    1.11014884428919    0.24526065402583
O           2.01796338470999    1.27616628173705    2.58296569041061
O          -0.00203048484659    0.08683127393560    1.93921979165178
O           2.18290836809330   -0.85036125810838    1.43341916398961
O          -0.34054760899444   -0.58137543429226   -2.18867916744504
H          -0.53677782764046   -0.96956556502230   -3.04214336036543
O          -0.50465369207609    2.89904363860638   -0.20470761330896
H           0.27452470639642    2.34001385398804    0.00877980259799
H          -0.55723892501159    3.56200092204956    0.48478372304770
O          -1.63037453474241    0.43548986708984   -0.00911079514951
H          -1.48306384163534    1.39159380889514   -0.14441483401407
H          -1.26455891570641    0.00506676962026   -0.80427822588540
H          -0.64694461732012    0.19032709121171    1.16040760696019
O           1.13566398258567    1.58479843823377   -2.39389635729197
H           1.54742700819649    1.41725009034135   -1.52999110085992
H           0.23848867095247    0.20846792041923   -2.35687893641197
H           0.55900396132447    2.34234369578759   -2.25034296758027
O           0.77888212135374   -2.13300428058594   -0.21330847792732
H           1.67508878068502   -1.40662032078214    0.73109108376442
H          -0.03999991003391   -2.34509129097799    0.30538232695968
H           0.48233374616039   -1.58360429268071   -0.96128228200488
N          -1.47374231931722   -2.40858124743206    1.24292948163949
H          -1.15590268264944   -2.01087954519504    2.11910961703708
H          -1.94590223393577   -3.28153715651610    1.44004085599853
H          -2.14699878747712   -1.76156310934666    0.84947226110619
