    26
        -50.45234085  Gyration_radius:  2.4588540662 Dipole_moment: 5.679
 S          -1.47001481484659    1.37597944095947   -0.84194250289463
O          -1.93599815115551    2.62818245955017   -1.31032159890056
O          -2.59436743143226    0.34552806752323   -0.83384007362809
O          -0.32695350701060    0.82694444304986   -1.55510093578356
O          -1.05166271866529    1.49602110398167    0.65078359273998
O           1.11438556636450   -1.98795168378051   -0.22780394079686
H           1.49415146822327   -2.86650393004929   -0.18851958854355
O           2.06906359528493    1.81820483675925   -1.05572780751891
H           1.16710102714447    1.54954619442045   -1.33754220253937
H           2.08574650098013    2.77562211872632   -1.08372741927440
O          -1.55744420580336   -1.63475189809131    0.32001816057935
H          -1.48772657060539   -1.33523463375560    1.26338839827263
H          -2.21137935706907   -0.51150355711000   -0.41036941217445
H          -0.64311745742698   -1.80261727918748    0.02839237425207
O           1.22031838892290    0.39603675502882    1.09642878947486
H          -0.16769520749374    1.03198975661352    0.84127034093531
H           1.20998627235861   -0.50613857016693    0.72578172990998
H           1.75514486680586    0.92365957634415    0.47216459909584
O           1.59122969025585   -0.79661227805643   -2.52289540099116
H           1.31729611917307   -1.62570539294425   -1.13056643212612
H           0.76064972289084   -0.29588670911070   -2.46483097816364
H           2.28392149101730   -0.14495709058371   -2.37264603029334
N          -1.20631791161407   -0.58387223754974    2.77834836858493
H          -0.21444819588823   -0.39683154806619    2.86753702081618
H          -1.53513467042274   -0.98829373413848    3.64565980327588
H          -1.66673450999544    0.30914577962815    2.64606115569167
