    26
        -50.45234087  Gyration_radius:  2.45887695846 Dipole_moment: 5.681
 S           0.59942403571553    0.55805450842053    2.02308051754962
O           0.66891512100716    1.40758267590226    3.15351124385167
O          -0.88540881736366    0.21566541177499    1.71394534787679
O           1.16905369773712    1.09826317211470    0.79821582309154
O           1.24174082017329   -0.79345197747763    2.31794370347020
O           0.67253831562244   -0.71917745875231   -2.06763297202201
H           0.87056016454082   -1.15957032019151   -2.89492920883217
O          -0.21906570640682    2.88798945013458   -0.55929988911864
H           0.34897433130976    2.33008608021438    0.01620116809128
H          -0.55147541806259    3.59516219233553   -0.00513591376008
O          -1.42291054551335    0.46369574984104   -0.78007758020975
H          -0.75415536738111   -0.02515520855351   -1.29504931964546
H          -1.09655116778590    0.27876679625326    0.72178410785742
H          -1.18561073037884    1.40587435666177   -0.88037389144893
O           2.17895848782433    1.40071877462990   -1.67985652915551
H           2.14059680424587    1.28340175125788   -0.71617524530540
H           1.30064528599793    0.04694311415381   -1.99040562162480
H           1.63749167233903    2.17701481862231   -1.85646440126553
O           0.68942268825099   -2.15642012069159    0.27702491717805
H           1.08654326398451   -1.38564897612852    1.48984209533203
H          -0.28499185545381   -2.31832350724852    0.37078682037390
H           0.79464331559573   -1.65257626978207   -0.55018267748185
N          -1.99028125296925   -2.29266002489259    0.54505949274192
H          -2.09136219654559   -1.84580789116971    1.44891979868574
H          -2.54114117385062   -3.14142977214580    0.54412926395048
H          -2.37655379263503   -1.65899731528188   -0.14486103017191
