    26
        -50.46507287  Gyration_radius:  2.55406988659 Dipole_moment: 4.286
 S           0.20602532540823   -0.85510179597717   -0.47419816798335
O          -0.34243666004048   -2.19503790036779   -0.30118102795563
O           1.51198369081021   -0.70117183661271    0.15116402918238
O           0.35265583277313   -0.59390010599124   -1.99497160240832
O          -0.74062487496208    0.14169680340953    0.04479579657699
O           1.75299546835308    2.94991759770415   -1.55951365255494
H           1.88306138423821    3.65063371894448   -2.20018515494798
O          -2.95757736295811   -0.41078870855354    1.36628552364175
H          -2.17912828212990   -0.08375690321771    0.85758108251348
H          -3.65315642759095   -0.54654489796019    0.72123916137086
O           0.68593819844323   -0.28246204273143    2.59148408704255
H           0.23053071726935    0.55651583912972    2.47974114413539
H          -0.39133711666239   -1.47575749422798    2.52555415707217
H           1.14698165640789   -0.43213681868963    1.73092691514139
O          -0.75619283880022    2.03993413473843   -1.80567084578725
H          -0.72607867382232    1.46970959973825   -2.57881281769253
H          -0.81426535436330    1.42282345999703   -1.04668722426234
H           0.79566480737372    2.72092412669298   -1.58837526780561
O           2.65588972887771    0.45794983885373   -1.95486513619441
H           2.71171836844398    0.08346652534089   -1.06128680010233
H           1.28380798542769   -0.19939452617230   -2.11979357352742
H           2.46255337315848    1.41493499074659   -1.82739140942016
N          -1.11452749122973   -2.15528599672302    2.14770500951971
H          -0.79695858470862   -2.34101220272815    1.13600213193180
H          -2.01666553445490   -1.63513634390915    2.05922306511712
H          -1.19085731529135   -3.00101906146892    2.70123056737715
