    26
        -50.46507282  Gyration_radius:  2.55397574714 Dipole_moment: 4.284
 S          -0.51726217605987    0.12533867290645    0.84698190954753
O           0.26587534481702   -0.47978718382639    2.03995519035856
O          -1.26777167263971    1.27381045125138    1.34094673472491
O           0.47638800287929    0.56717671401090   -0.14117641130883
O          -1.37916016895846   -0.90599034663873    0.28671859604565
O           1.88671610316012   -3.26071103494475   -0.04869870088073
H           2.60663910969541   -3.85795292930185    0.15961881271744
O           0.67470369506912    3.01503697816002   -1.10826513186697
H           0.72124672803189    2.08090948990068   -0.79694555884301
H           1.23127129670394    3.51729524454182   -0.51122936474068
O           2.67445409339038   -0.76168327031501    0.51583086339632
H           1.92415369808776   -0.23912355240809    0.16340026619793
H           2.58751107027946   -0.69536995907763    1.47073041911720
H           2.24420845668843   -2.34861966539071    0.05167405261664
O          -1.72073395896806    0.16126720427573   -2.07037379244064
H          -1.69221568719569   -0.35703567104416   -1.23011644928464
H          -1.97527557108154    1.63085372381692   -1.46641778436678
H          -0.82487784233262    0.11386614440653   -2.41507458423808
O          -0.21619090141446   -2.92263642123313    1.57809102646771
H           0.11150723004678   -1.48574452816082    1.99045562199960
H          -0.91255085368653   -2.58080183175828    0.99487473516032
H           0.52029008252738   -3.18783329903054    0.98085985773545
N          -1.91137367798298    2.48040768804545   -0.83268896429556
H          -2.72504533906132    3.08186961027363   -0.89312435935790
H          -1.01569163341676    2.97082571933658   -1.05574694802908
H          -1.76681540858210    2.06463206221620    0.14971998359814
