    26
        -50.46507311  Gyration_radius:  2.55420438905 Dipole_moment: 4.278
 S           0.92899301523519   -0.35592806515865   -0.06626851845922
O          -0.47949838304341   -0.48719895628245    0.33136221175600
O           1.42670511490918   -1.63717317428163   -0.55312898007033
O           1.09272509635518    0.71354209206244   -1.04089532772343
O           1.72891989501949    0.01164043653934    1.20943636368970
O          -0.12862573909269    3.31548282886145    1.78998340770883
H          -0.14225828748941    3.89828479405823    2.55056715393681
O          -1.97091229126272   -2.63018190340851   -0.05649903744355
H          -1.50760664745845   -1.79104657760036    0.17338971066535
H          -1.83129240650268   -3.21787822042755    0.68752853181087
O           2.15066616329192    2.45107075697592    0.67605303232775
H           1.89108635818535    2.20461964498986   -0.22604634505104
H           1.36528618474102    2.90301997596400    1.06103887925810
H           2.00233456367810    0.98641649989479    1.09409741228667
O          -1.01842813661689    0.20063496615657   -2.48698846322278
H          -0.19026575162379    0.51144373971297   -2.04751634827798
H          -0.73062252257876   -1.38228607539936   -2.50152356868569
H          -1.71481998996201    0.38723397211444   -1.85147004311917
O          -0.62056022782732    0.81940292507141    2.63399389373081
H          -0.69847635078970    0.33680098438575    1.78474856037642
H           0.21695522594285    0.52550000774605    3.00274693966968
H          -0.43045697036765    2.43422911187038    2.10946351619805
N          -0.41834854463146   -2.34873382026737   -2.19174535926436
H          -1.13782132416283   -2.71224852464616   -1.52619543634754
H           0.45292416066498   -2.16246019075871   -1.58770888515367
H          -0.23660222457550   -2.97418723813526   -2.96842331052740
