    26
        -50.46507309  Gyration_radius:  2.55424021844 Dipole_moment: 4.280
 S          -0.40069472537871   -0.90794051948340    0.09913738190045
O          -1.23631401986050   -1.47121637501552    1.15307198202685
O           0.98914036883537   -1.32987536428976    0.20287207613881
O          -0.96286065001712   -1.38993479092628   -1.26249013490698
O          -0.50241881372044    0.55790988421842    0.11259648062367
O           1.66930848471264    0.46015544776880   -3.34876441550666
H           1.70688318627985    0.63850184186831   -4.28956887911469
O          -1.76124010474175    1.97433981958194    1.94997344276435
H          -1.29288065754419    1.55544560636426    1.19047948037924
H          -2.68123213750006    2.03465446523129    1.68837113288884
O           1.74598016679973    0.38752777693820    2.01638881676809
H           1.64832234535740    1.21021499383002    1.52921085513391
H           0.43240356957176    0.14966570652505    2.91445957633414
H           1.61013901880690   -0.31985566364973    1.34056669885291
O          -0.74129190482981    1.20830053610865   -2.44655345582230
H           0.82688060167335    0.85386570695806   -3.02455179339887
H          -1.32482330779784    0.49142338815669   -2.70993864457272
H          -0.63253604927331    1.09444781884713   -1.47939191049371
O           1.23641241244086   -1.99426616124481   -2.36303826541512
H           1.59481866229047   -1.95101078151723   -1.46216348854585
H          -0.15693064125322   -1.70984550464789   -1.79762773728686
H           1.50900985924253   -1.15248923925405   -2.79478070875311
N          -0.57358053295222   -0.05176996732213    3.18819058396819
H          -1.12741054107386    0.81609197134419    3.00701949257438
H          -0.66454207438050   -0.39604401959900    4.13721313193006
H          -0.91054252569853   -0.75829655680855    2.44931831152838
