    26
        -50.46507291  Gyration_radius:  2.5535120796 Dipole_moment: 4.275
 S          -0.14274337328904   -0.96006704373102    0.24726228825328
O          -0.98649927999766   -1.66755059932517   -0.84355702721875
O           0.77532849597155   -1.94299821713392    0.81039885104559
O           0.61696802655893    0.10634468905612   -0.41970394858820
O          -1.04612383301178   -0.40365514980003    1.24465094932289
O          -2.98207714780891    1.48114032985501   -1.75861940705763
H          -3.55983517339977    1.66072489635037   -2.50179070933803
O           3.24222614795375    0.37084129956630   -0.35118165038058
H           2.26478656040952    0.35730138654845   -0.47797668812004
H           3.60492407983073   -0.16255349331557   -1.05998881599935
O          -0.67621450276597    0.49192426084914   -2.70147274132502
H          -0.87432057449158   -0.42784262794875   -2.89782805308988
H          -2.10725412471707    1.23683327222581   -2.13910507876543
H          -0.13444644520488    0.45850216782644   -1.88560008023825
O           0.58228392790388    1.37345484731054    2.24495511904435
H           1.81441475822179    0.34058493113652    2.30021966392476
H           0.69334091603228    1.95444073878706    1.48753399554470
H          -0.13784193500624    0.75198214066402    1.97884358863482
O          -3.24493890926811   -0.70206502484386   -0.22646021933617
H          -2.81118211505520   -0.45842987527293    0.60684009279824
H          -3.28653418958567    0.12827397982635   -0.75384534677061
H          -1.95092412291908   -1.38653143212031   -0.67304969945788
N           2.46656827822724   -0.45877681116994    2.04861235589432
H           1.81601074661827   -1.20647738137131    1.62883544084386
H           3.00166346482997   -0.79739039213239    2.84011452196730
H           3.06242033407134   -0.13801091165253    1.25191261852625
