    26
        -50.46507227  Gyration_radius:  2.55302651823 Dipole_moment: 4.277
 S           0.27944131118434    0.76875575757342    0.58097071393863
O           1.24282786991784    1.69808006077388   -0.20064574493068
O          -0.49519241782743    1.59654330771535    1.49786405218470
O          -0.61481022678123    0.14733155318756   -0.40581412866277
O           1.06787022994254   -0.24224644767801    1.27128429493662
O           2.76370116378025   -1.14360766941742   -2.28508741103891
H           3.32548800179245   -1.11575691050782   -3.06097904580910
O          -3.25143038547324    0.25881166217865   -0.34936414704571
H          -3.51897599186584    1.05699479091959   -0.80748824175116
H          -2.27989663714375    0.17801507576458   -0.49479800811803
O           0.65393566668393    0.45350965264470   -2.71327018630780
H           0.99259377899521    1.33994804119082   -2.56025465908720
H           1.94409685837055   -0.64960707755703   -2.51749761993779
H           0.10587152234453    0.25998423629314   -1.92432924307969
O          -0.82979608735826   -2.00495492294659    1.59347707570255
H          -0.01861749295868   -1.44303857177543    1.55441775061741
H          -1.89391713403592   -0.89839037373377    2.07379618014314
H          -1.01047805371917   -2.23289763329052    0.67744351745798
O           3.31733185776384    0.25174175465110   -0.06489779543569
H           2.15033139920562    1.23524622094913   -0.18048627015086
H           2.83471885170755   -0.21637825120758    0.63490738884031
H           3.24509594798905   -0.32085847384756   -0.86257724972401
N          -2.41450493384179    0.02329639600930    2.15945053288456
H          -3.03468840080057    0.11094861345304    1.32281525996644
H          -1.65131651683392    0.76983390702561    2.02232060392728
H          -2.90968017103293    0.11869531168313    3.03874240049550
