    26
        -50.45059467  Gyration_radius:  2.46312999987 Dipole_moment: 4.140
 S           0.69551346479306    1.39654791005373    1.25310232093404
O          -0.45249070344635    2.22782905335382    0.65646047409358
O          -0.04715840814329    0.32324049802081    2.09608350861925
O           1.37327833195362    0.71595423861236    0.16627525058603
O           1.51666879979892    2.17545332327406    2.10175470468293
O          -1.27112052602907   -0.94320639018659   -1.60696263628196
H          -1.61859877311646   -1.54456030410885   -2.26616739330225
O           1.85854515311657    1.90682274164677   -2.18160116962584
H           2.36328968531796    2.70724011335426   -2.02970963780571
H           1.88528354337720    1.39903980580158   -1.34829307216197
O          -2.19281068632579   -0.07460361394413    0.74343144745442
H          -2.50154829141269    0.81740103378547    0.56137949277990
H          -1.94762581001375   -0.46841465997180   -0.12345265788995
H          -0.90119768668499    0.11398984028054    1.60652453172221
O          -0.77145174585980    1.71698569196669   -1.77360742058487
H          -0.58824177394936    2.03450985948406   -0.36253867133458
H           0.13357212167058    1.84689521152983   -2.13366939200138
H          -0.95090560189297    0.75730109841768   -1.84156299843321
O           0.92600608436470   -1.83284047784310   -0.63599386553570
H           0.71545736409630   -2.26818999776075    0.22280548666172
H          -0.39459538799041   -1.33930533395915   -1.28759520929618
H           1.29790646832132   -0.96798579946886   -0.39264883603587
N           0.27993690617145   -2.66641998603215    1.87814953643369
H           0.92543271879019   -3.26598509872894    2.37634176116732
H          -0.65533411074680   -3.02501154682829    2.02439764777197
H           0.32218886383546   -1.74268718075003    2.29709680738377
