    26
        -50.46507286  Gyration_radius:  2.55374733839 Dipole_moment: 4.280
 S           0.35795655295285   -0.91275860383504    0.20288689714110
O          -0.59206469837332   -0.86798215011769    1.30562583175460
O           1.68649097310394   -1.33964082108777    0.62593289503014
O          -0.15486865519134   -1.92803659079076   -0.85002896843471
O           0.44342735468501    0.39372340753053   -0.46421443001756
O          -3.49229118603662   -0.11547339307352   -1.40639403549003
H          -4.15892158406640   -0.22845002980468   -2.08548174412403
O           2.61605969848625    1.88539712047688   -0.60869467538693
H           3.11212203336055    1.59999525559191   -1.37743178904351
H           1.75616358853531    1.40526876919612   -0.65035072833592
O          -2.52260321202250   -2.17043434415441    0.01522289532277
H          -3.00926209476104   -1.45725856035733   -0.45788553702363
H          -1.11296936953924   -2.14599406696220   -0.58051114252523
H          -2.17365023608629   -1.75596946972145    0.82041936546105
O          -1.10503514206855    0.13158664731931   -2.59996069890970
H          -0.53183161545484    0.35525342043607   -1.83728514470992
H          -0.86005164329481   -0.76878314810174   -2.83042204864460
H          -2.65131250635352    0.09340040529486   -1.87433014061512
O           0.08864182135005    1.46204350435609    2.26422092841173
H           1.66255329778450    1.14736249367883    2.15108383865118
H          -0.17074048649788    2.03275427176232    1.53575309477892
H          -0.27185674764195    0.57401414574384    2.02552075938536
N           2.58616977458836    0.76174121647333    1.79662965036043
H           2.86973639399456    1.33688639746899    0.97111660290014
H           2.33024149437445   -0.20227002072584    1.39183254757094
H           3.29789618418886    0.71362413344369    2.51674578652484
