    26
        -50.46507295  Gyration_radius:  2.55353439309 Dipole_moment: 4.276
 S           0.14175311779011   -0.95885674360705    0.25112595707002
O           0.58309323308731   -1.77171258909197   -0.99261203514379
O           0.77865653200932   -1.55071813201881    1.42166529231705
O           0.62630810090135    0.41541314230734    0.06184493350452
O          -1.31192343119145   -0.98692362524842    0.33199692339515
O          -1.41461506545291    0.37412579696182   -3.46988073808950
H          -1.38632408411259    0.41259134213420   -4.42699457605883
O           2.17895986561265    1.72296681815121    1.74887115674840
H           1.63111231108142    1.32805016399980    1.03083335573291
H           3.08708079797900    1.50353081993062    1.53524065746514
O          -1.62367805364424    1.12376507864002    1.83491163263793
H          -1.30350358918512    1.80898946617855    1.24195223292261
H          -1.66618274606728    0.31051122613670    1.27597588813771
H          -0.43667777166047    0.69563945632176    2.83296206666316
O          -1.67373402927953   -1.93261018411611   -2.13025540173191
H          -0.26730069025241   -1.94378315549497   -1.52682820256897
H          -2.02626469610364   -1.66481310479323   -1.26659894507418
H          -1.70254408731084   -1.12224892381879   -2.68868729144466
O           1.09142355607866    0.58385221530425   -2.54249197048759
H           1.46509919720467   -0.29294454632004   -2.66654518631881
H          -0.50291752663275    0.57494441153798   -3.15639145031931
H           0.93398580547741    0.65021531479600   -1.57754988098333
N           0.47506690286612    0.28585201021124    3.19121729453556
H           1.24167117517618    0.94317431680282    2.92111695374714
H           0.62783111432334   -0.58811350470442    2.58180431578479
H           0.45362407133655    0.07910290979291    4.18331703755699
