    26
        -50.46507290  Gyration_radius:  2.55344648448 Dipole_moment: 4.275
 S          -0.24826429955455    0.91561652826780   -0.32194554610106
O          -1.16840142141633    0.89106260254606    0.80643546733551
O           0.37298047943704   -0.40179928876253   -0.51606563995929
O          -0.89048848800051    1.34631811414111   -1.55813262101375
O           0.89397327305272    1.91463516403783   -0.00636669565631
O           1.99561745965866    0.09915555752025    3.19176083681395
H           2.78220460801286    0.20313877391943    3.72915606939105
O           0.11230138190142   -1.89930481344390   -2.67389249357544
H           0.78559935574167   -1.62561776924530   -3.29860691162522
H           0.31122520648254   -1.41847662047011   -1.83670573951458
O           2.75031704675059   -0.17253884159832    0.63419480698197
H           2.30628733543683   -0.11923868439096    2.28315092833916
H           1.89566963681420   -0.38412214603295    0.20395832142171
H           2.94993078816651    0.72296392327426    0.34782722285640
O           0.46060307844046    2.17576038013209    2.47504632941401
H          -0.39997894407782    1.77456954823803    2.27420131264133
H           0.99972349397144    1.45545815182643    2.87496866102618
H           0.80018581641366    2.13866196256306    0.98317705692066
O          -2.26491742499215   -1.42608904542711    0.31697681186803
H          -2.42524679752372   -1.11634859077790   -1.25356120576447
H          -1.51051014101137   -2.00709066006328    0.44716638209169
H          -1.95376847678133   -0.54087528292240    0.62538128855955
N          -2.23328243087678   -0.73823910432539   -2.22710420924784
H          -3.06686036780118   -0.68040505252178   -2.80093893922938
H          -1.47960009621840   -1.32703139741926   -2.64883492135423
H          -1.77530008217639    0.21983660091193   -2.05124658260604
