    26
        -50.46507294  Gyration_radius:  2.553921486 Dipole_moment: 4.285
 S           0.32464832461050   -0.73831840029442    0.59078203238072
O           0.32537603152243    0.66387936112489    0.15137531452017
O          -0.86851902009703   -1.42653155376119    0.11843748228214
O           1.56782149917169   -1.41350813271757   -0.04254807061640
O           0.47046955002678   -0.80232175830711    2.04019726522359
O           0.43139582402376   -0.80703939036180   -3.65577683069466
H           0.91012308340749   -0.89242199779675   -4.48151273976264
O           0.28863653360805    2.75908161071773    1.75620344704204
H           1.19612586361021    2.96368202350768    1.98647867530928
H           0.33813984992801    2.06062390756416    1.06239591056635
O          -2.58485095728679    0.48213796854894    0.59141275037097
H          -2.27675796467901    1.15049927405424   -0.02680206309397
H          -2.06386356952137   -0.32575872959285    0.36485639595703
H          -1.97218869856100    0.79244859792849    2.04660486059481
O           1.90662918249083    0.67221280006885   -1.97641586060766
H           2.57292532400478    0.06285350170292   -1.64695547557532
H           0.93590376998627   -0.16342065464889   -3.10713979111345
H           1.28712983547307    0.78878324446620   -1.22614264810623
O           0.37225940814853   -2.76099617946021   -1.82252478053333
H          -0.42456610011355   -2.57131607365810   -1.30195953606296
H           0.33997488036575   -2.14218528274969   -2.58771728644645
H           1.20753343259840   -2.03363181043025   -0.76632868181474
N          -1.27384739136150    0.90508724191625    2.83848091608032
H          -0.75859772867757    1.79989040255902    2.67671276580781
H          -0.54968701953246    0.12827505382251    2.66250711579937
H          -1.70221394313651    0.84799496575621    3.75537882250031
