    26
        -50.45059448  Gyration_radius:  2.46319596511 Dipole_moment: 4.136
 S           1.65360401489656    1.10928098272111    0.19610289224252
O           1.69230127956164    0.97659617517574   -1.33550712955259
O           0.29074507137313    1.41213833150726    0.58944040810675
O           1.98009660804246   -0.32950976956760    0.68342856468257
O           2.64520357013740    2.00147732225830    0.66713819145529
O          -1.66499840003649   -1.13983580539237   -1.00893972848414
H          -2.47448807374658   -1.62277762849142   -1.17757374167808
O          -1.25147490522868    3.10651263180677   -0.79528977773708
H          -0.77271009531713    2.59194967794810   -0.11779305922173
H          -0.81034195939348    3.95520837526915   -0.85550101386529
O          -1.55314667500824   -0.38355673558303    1.43581017398592
H          -1.69888658671502   -0.84852732021153   -0.03878535710435
H          -0.98414575072063   -1.02667655700991    1.91956718563646
H          -0.98368528248297    0.39034648829157    1.28663400795148
O          -0.61623735350392    0.99947336387692   -2.30410547918315
H          -1.10590577997077    0.25928539873450   -1.89162421566813
H          -0.99502796146850    1.81988957940801   -1.91810124212153
H           0.73450459534070    0.99826480132432   -1.75520409379439
O           0.91917670333042   -1.79856217950544   -1.13528385081374
H          -0.05549536862776   -1.67180742058643   -1.11032627518360
H           1.22739137510541   -1.39094937169794   -1.94952359363104
H           1.57616655516276   -0.95942814746399    0.01046684125601
N           0.32620306692524   -1.99827939627864    2.57327928926758
H           0.41471000844286   -2.93934450056472    2.21100052326626
H           0.38381849806109   -2.04576114683938    3.58262892984428
H           1.12262285583833   -1.46540715912386    2.23806156034306
