    26
        -50.46507290  Gyration_radius:  2.55350108499 Dipole_moment: 4.276
 S           0.99493102069500   -0.10097846798927    0.05706492594992
O           1.35807811894298   -1.16505709141980    1.12394611263207
O           0.84275512688285   -0.76657030722525   -1.22913758925685
O          -0.27089184603277    0.51593164939835    0.47706229296832
O           2.05375173633429    0.90145131005632    0.04649694484088
O          -1.80085393620021   -3.26416492280021    0.53176054593241
H          -2.17821411811509   -3.98266758034367    1.04138647929059
O          -0.64546569360636    3.10021026820049    0.86170574723747
H          -0.61885776935066    2.11792703861381    0.78410971176911
H          -0.39104792495003    3.29793312093769    1.76429327887883
O          -1.29944813248080   -1.22219958071872    2.19424499041510
H          -1.03491452738785   -0.52158951759392    1.56224458703593
H          -1.74179177811440   -2.49242126187771    1.14063651175902
H          -0.48262931823023   -1.47001023227237    2.63603648605828
O          -0.60419144165128    1.06052692874809   -2.40327142140274
H          -1.40377982656347    1.01771859069261   -1.87178741611448
H           0.31997834477879    2.26245903724007   -1.86541895266738
H          -0.06254485823750    0.29195829274928   -2.10072067758359
O           0.77137685071791   -3.22943595932564   -0.22052436226791
H          -0.18107883903524   -3.36939187442333   -0.01438285973834
H           0.78626656084591   -2.62671741711467   -0.98104517212253
H           1.20154250322754   -2.06809076207745    0.67873252493436
N           0.95704588450356    2.83591916441319   -1.23858038025414
H           0.36307378812763    3.25507600840656   -0.48748427675392
H           1.50273006221340    3.52094123761950   -1.74892326838624
H           1.56418003269296    2.10124230808883   -0.73844477311883
