    26
        -50.46507296  Gyration_radius:  2.55382766002 Dipole_moment: 4.279
 S           0.87571744627358   -0.18850662493379    0.44534711587226
O           1.82112480590137    0.70738212004512    1.10096947870635
O           0.05336482494628   -0.92481812627839    1.39507944427554
O           0.03621365296395    0.57168848292474   -0.49084353747621
O           1.68891770394957   -1.20503932701870   -0.39596006919176
O          -1.40959243597222   -3.04113741538114   -1.71945614782960
H          -1.50014978946149   -3.68463813414703   -2.42375116001848
O           0.02632317773422    3.20021464980506   -0.73147911191694
H          -0.03393700103102    2.21668647044891   -0.75722364053188
H           0.71672861031099    3.43594197915641   -1.35302108633219
O          -0.03830534163406   -0.94166888311330   -2.66630135291087
H          -1.01302795786722   -2.23695052117038   -2.12663647625395
H          -0.10596105887046   -0.31379138958012   -1.91701384239857
H           0.87785888867762   -1.23208762382876   -2.65618381909907
O          -1.70796589904034    0.94417491685207    1.85989838493905
H          -1.12288119757691    0.15120055946224    1.79365976737752
H          -0.58612131702777    2.08905610722040    1.99951656871085
H          -2.12133615780946    1.01336473461774    0.99503052715523
O           0.40600663576967   -3.29521735059073    0.23543136423320
H           1.28698104467632   -2.11856844993305   -0.19072384515499
H           0.05289761856755   -2.75055958438828    0.95691588377066
H          -0.30915614429649   -3.33242941133468   -0.44024782961668
N           0.30754639171756    2.64246008638739    1.84910612113215
H           0.54295442177635    3.23629944709913    2.63612866942316
H           0.20390442343128    3.16650527264105    0.95067752455618
H           1.05189465391746    1.89043802501195    1.65108104855816
