    26
        -50.46507300  Gyration_radius:  2.55448804119 Dipole_moment: 4.279
 S           0.54182617232716    0.12125177088897   -0.82617001288233
O           0.42758821284005   -0.12887557220488    0.61723181240991
O           0.91608418382799    1.61521218929101   -1.00007633910233
O           1.62600149088885   -0.67962002160073   -1.38253170468654
O          -0.72948377428427   -0.11954747803627   -1.49415622487829
O          -2.29232461910544    2.92699761703629    0.63862507981494
H          -2.52276054854630    3.80658782341454    0.94119009455935
O           1.77393725770574   -1.96991997133186    1.94511321195254
H           1.24368885574859   -1.22997869869260    1.56674258987611
H           2.61379012261584   -1.58539093848341    2.20066898110765
O          -1.32942875457972    2.45347942469424   -1.81747455376716
H           0.08428647403243    2.06746060730028   -1.37678204443500
H          -1.52331503654194    1.51437781264458   -1.96720730344846
H          -1.79709428098206    2.68837444541459   -0.98356135697021
O          -1.39498622972763   -2.29540467856662   -0.21551579328123
H          -1.27949018545657   -1.49510109932303   -0.78258258888766
H           0.07827852301064   -2.92865134562850   -0.35159639076284
H          -1.50727582176592   -1.94845915638143    0.67365612725985
O           0.10133657970229    2.28651910154382    1.66143346299638
H          -1.47416928362782    2.67156923525094    1.12351432672406
H           0.18653026797012    1.34811721751272    1.39263572900198
H           0.72856325660206    2.75509630499542    1.10389942007257
N           1.13528029598068   -3.00681036660135   -0.41373741735713
H           1.43498302943988   -2.11429824083128   -0.93550919579711
H           1.44324809466463   -3.85698661920815   -0.87177355770519
H           1.51490571725548   -2.89599936309557    0.55396363815582
