    26
        -50.46507303  Gyration_radius:  2.553739848 Dipole_moment: 4.274
 S          -0.92663495580338    0.37107069449149   -0.05720414572142
O          -0.48476434905541    0.83802409060097   -1.36380929568089
O           0.07442851297503   -0.52183979372188    0.54259461765592
O          -1.06590833242532    1.59489200051895    0.88359501448882
O          -2.21939641564808   -0.30126763653337   -0.11134905750406
O           2.58808321535581    2.69439576920441    0.48264815651613
H           3.10678615176918    3.33090242883588    0.97676608404266
O          -0.32565661278751   -3.05899952156675    1.15045284630673
H          -0.70227259494866   -3.08902089604369    2.03121199996265
H          -0.06864460997892   -2.11931616979703    1.00011250150014
O           0.18015486973123    3.28000830091760   -0.53800469433314
H           1.11320149831446    3.17817009413534   -0.24070276049313
H           0.06265218470738    2.63043996260370   -1.24943810960912
H          -0.62863077088259    2.37312434922800    0.39230705143782
O           0.48666153022773   -1.42105005690100   -2.23740133485717
H           0.15878409715008   -0.50796614649499   -2.05193767087063
H           1.21786147905987   -1.54485013967127   -1.62619838050814
H          -0.78045689433439   -2.26580605716978   -1.71898536269275
O           1.40344230934458    1.03740235984670    2.22498626195021
H           2.26650207969644    2.03092386714386    1.13545647383149
H           0.65470940145364    1.53929268117140    2.55861032419532
H           1.00670927662654    0.37453867657064    1.62211413553467
N          -1.60411114684989   -2.57882029437278   -1.12634998055401
H          -2.02102890284235   -1.66065912975428   -0.74992230928640
H          -1.21806256687087   -3.06694600886063   -0.28648667406830
H          -2.27440844395585   -3.13664342432905   -1.64306572120850
