    26
        -50.46507287  Gyration_radius:  2.55352262502 Dipole_moment: 4.277
 S           0.84926466552191   -0.22116785814125    0.48284233744801
O           1.31885636507009    1.02899332000962   -0.09775654870561
O           1.79318758976375   -1.31600611308136    0.29190089370879
O           0.65952121409195   -0.01718417440021    2.00755380839155
O          -0.46137059446555   -0.59155621758129   -0.06873918192792
O          -1.85616141300318    2.85391821897863    1.60850689160818
H          -2.43326788366936    3.27239564770755    2.24895234011358
O          -0.95967539861785   -2.77645325599406   -1.46316491524554
H          -0.90469607522375   -1.94981405570283   -0.92903841484808
H          -1.16197643514982   -3.47657991917234   -0.84078968639274
O           0.76643910929734    2.51275571925273    2.04261009610748
H          -0.17128304815170    2.77948625643699    1.90519113597462
H           0.72712445973799    0.98756188990883    2.16283687859139
H           1.14211590273861    2.41824741939824    1.15275805328508
O          -2.18827429704120    0.19976300981953    1.78027607653853
H          -1.65274629152288   -0.10959069367624    1.02013894621145
H          -1.67829092778198   -0.05419067437166    2.55437278545262
H          -2.08747390186498    1.89668846222936    1.60933773428835
O           0.60952636001738    0.56203277052390   -2.56549694136370
H          -0.34661080315695    0.53986770555347   -2.47107327471468
H           0.93926751160583    0.87647015529074   -1.68912793430038
H           1.17603542204006   -0.94353903675705   -2.53548834769246
N           1.44410008428767   -1.90849317460981   -2.18265805206543
H           1.73878557885439   -1.74211570007354   -1.16087182613222
H           2.16980637276591   -2.34611357379297   -2.73879419593006
H           0.56779643385141   -2.47537609779377   -2.12427865841205
