    26
        -50.46507286  Gyration_radius:  2.55344117514 Dipole_moment: 4.275
 S           0.38989852075794   -0.65399826542477    0.65150467220449
O          -0.74650326737623   -1.38521562621302    1.41065793571406
O           1.52542938604599   -0.52961017574501    1.55770844654935
O           0.71229665961572   -1.41562910230022   -0.54700260500358
O          -0.11557236147555    0.68029373336475    0.30023183209234
O          -3.20207877906369   -1.24906590932515   -1.53734397351322
H          -4.14248844571694   -1.42935325468836   -1.57587352195455
O           1.03558322317213    2.96171377395544    0.96099325540570
H           0.49852602475934    2.18214872561645    0.68627876768260
H           0.71751589155912    3.20414897626466    1.83195183636266
O           1.85054959833741    0.50879908606246   -1.89303219938206
H           1.10166331933979    1.09669154183165   -2.02397212773316
H           2.69918850965002    1.01346055735398   -0.62281219345611
H           1.45837014927414   -0.31266730553098   -1.50965261743736
O          -1.45392447785164   -2.96008666840495   -0.44217632251552
H          -1.09614846093071   -2.09493440333588    0.76860843032905
H          -2.13345272617467   -2.44196281142635   -0.93119190817953
H          -0.60468638955662   -2.72027046106374   -0.84609266607995
O          -2.74929939535072    0.44575614157200    0.48929085923766
H          -3.08274125211592   -0.53600209295694   -0.86870996578681
H          -2.77646235448105   -0.10856184066864    1.27403387701225
H          -1.79853670103332    0.64595899784588    0.36178961667961
N           2.96914271532345    1.23771886151887    0.37938677739549
H           2.46518640331213    2.11215514904502    0.65154900502540
H           3.97197184909839    1.29226412483282    0.51665676442621
H           2.50657239088438    0.45624823782344    0.95721802495457
