    26
        -50.46507299  Gyration_radius:  2.55393769963 Dipole_moment: 4.281
 S          -0.04164719925786   -0.98693390961492   -0.15541065198364
O          -0.30763546660302   -1.27534727428305   -1.65494197444708
O           0.78529138666041   -2.06773819449630    0.36820767503189
O           0.69457851369908    0.28274606034380   -0.08494287891604
O          -1.32153558801390   -0.88022272694502    0.53077238161215
O          -2.40225704263460    1.89284686216675   -2.20073940096875
H          -2.70654987559641    2.30768233940185   -3.00923220812888
O           3.03567077534856    0.61748532180343    1.08718876880956
H           2.18363950455454    0.60904670303243    0.59156445441173
H           3.71371425002726    0.40288315923202    0.44475074658861
O          -2.77635606558156   -0.71187813438684   -1.69264788204869
H          -2.78354562606498    0.25197807746883   -1.89350269785715
H          -1.30537468267328   -1.12227079503459   -1.79364898888786
H          -2.71239228285942   -0.77476594487940   -0.72629950429732
O          -0.49667898908567    0.46658433651214    2.60873868245351
H          -0.95263858313690   -0.04202478863200    1.89537698355619
H           0.80576016527378   -0.45839183500151    2.80156362919613
H          -0.23682445637639    1.29170692514720    2.19001986431104
O           0.22802550089520    1.43017127563602   -2.42888441579969
H           0.28382003999110    0.64118382792550   -2.97492909639649
H          -1.42056647220354    1.84713343223877   -2.26395425196357
H           0.44850858577921    1.12063163114085   -1.52564091950089
N           1.63893199317532   -1.07776982170007    2.57873642500343
H           1.32321529904781   -1.64333366909238    1.71892514435855
H           1.91723458950891   -1.66305848095089    3.35812995808450
H           2.40561174612446   -0.45834436703181    2.23080014787777
