    26
        -50.46507290  Gyration_radius:  2.55342388388 Dipole_moment: 4.275
 S          -0.66626782893312   -0.54604144605043   -0.51142283286570
O          -0.54112331131389    0.51537326969725   -1.50044292787429
O          -2.05587609383908   -0.87229248295374   -0.21370078731439
O           0.01316119740948   -1.82291758308593   -1.06850128723123
O           0.03810810464984   -0.18882389654071    0.72773969029599
O           3.44320312923996   -0.15825162896900   -1.51600110405544
H           4.30408368382112   -0.53925356336275   -1.69502976181406
O          -1.10305732209369    0.11193675789074    3.08871046024692
H          -1.14151784121694   -0.75139096557080    3.50309050271664
H          -0.56246231501469   -0.00552031302805    2.27284725406363
O          -0.89535547307938    2.53973450548046    0.10825149385256
H          -0.11403525393002    2.46109647391492    0.66234242824466
H          -0.75325002348644    1.88478420200642   -0.61724057157727
H          -2.13960799580870    1.84241275127480    0.85239993450299
O           1.27713034683220   -0.74612396677665   -2.98068098919524
H           2.13309733768570   -0.48837314127889   -2.56805930574897
H           0.53403939579369   -1.52278139926305   -1.89119699986891
H           0.68079063975076    0.00488596564479   -2.83157552764517
O           2.35150002350986   -1.47113409352918    0.55025086296193
H           2.02074585802659   -2.28777083165419    0.16619291417983
H           3.12220046609672   -0.57490906479963   -0.68347334352177
H           1.54886310385681   -0.93381719181420    0.71559320645987
N          -2.76953615825936    1.09747968894762    1.27179282985949
H          -2.63728494943651    0.24712849026030    0.62525199095969
H          -3.73637450050722    1.39259956750713    1.34671163043485
H          -2.35117420975852    0.81196989618858    2.18615022001554
