    26
        -50.46146994  Gyration_radius:  2.59074866976 Dipole_moment: 4.227
 S           0.65782321045456    0.01805143232984   -0.36043572105174
O           0.40496562563404   -1.41178274934926    0.24471067606292
O           0.84297050214115   -0.10478492556487   -1.78603936597542
O          -0.49114531246305    0.82944270593520    0.01751024113740
O           1.85980998376476    0.48782589912977    0.35001671627889
O          -2.53784303817377   -1.83999370822181   -2.45815987746862
H          -2.94121345604986   -2.00727074715100   -3.31124888193478
O           1.52726497081901    2.89178320896037    1.53362896417580
H           1.36930399329696    3.56935346228864    0.87460281698342
H           1.75102014705940    2.07984163000401    1.03620908935090
O          -0.04137918435403   -2.63999065383989   -1.93090733667539
H           0.41392888765356   -1.88611763099762   -2.33618638490522
H           0.19707294732391   -2.01702522012328   -0.54020144656134
H          -1.00032376773604   -2.50007255384552   -2.11171613994166
O          -1.64975665189508    0.67205404252205   -2.40527322546190
H          -1.65147812347185    0.93576876313961   -1.47311156568327
H          -0.70999501255072    0.48009321719585   -2.55796119286995
H          -2.32844141350105   -0.87496389948884   -2.43684524725586
O          -0.56221045362286    1.53616406589259    2.54377945037042
H           0.36437940073031    0.39278738886763    2.79415089672621
H           0.08060894698697    2.26609362032761    2.43123147373401
H          -0.77905666762154    1.29597952755909    1.61209194021877
N           1.13401318806930   -0.38262623523867    2.65392580624337
H           0.69637705467495   -1.27809489359517    2.44250181231054
H           1.78271079371518   -0.44854472866364    3.43166831660517
H           1.61059343913942   -0.06397100802568    1.74205819562380
