    26
        -50.46147037  Gyration_radius:  2.5913672407 Dipole_moment: 4.220
 S           0.41759775250754   -0.54391275300458    0.30038221567523
O          -0.30117823118862   -0.16206309578157   -0.90734881283486
O          -0.24262857646158   -1.69847507266140    0.93387340978952
O           1.83511179508796   -0.72799822829068    0.10369249963723
O           0.19504566574493    0.62257560733968    1.33195434052703
O           2.54381481626217    2.90635976021343   -0.98470292392855
H           3.35403639126963    3.24949473499735   -1.36445618432087
O          -2.06361278811011   -2.89417089732179   -0.66175576838493
H          -1.34177229064699   -2.58329824968493   -0.07952459870496
H          -1.63667741516531   -3.26942164652592   -1.43330951889494
O          -2.91364223146178   -0.34540512448019   -0.74345065385514
H          -2.73210369517786   -0.29018697898769    0.73723834710479
H          -1.98466771472315   -0.10699695762323   -0.97376457960949
H          -2.92627474036990   -1.31394131453075   -0.88627966017205
O           2.55422845864919    1.55780096488809    1.32448096867072
H           1.08506595485191    1.09870290314938    1.41597080394873
H           2.79270689971265    0.69271921422134    0.95762936336941
H           2.57616767822288    2.18468281145503    0.56401975081717
O           1.91840526715551    0.62456462378059   -2.21109315653901
H           2.22399521565980    0.01762728506680   -1.51690723969309
H           0.95611189948673    0.53631184215451   -2.14510584728696
H           2.28696831152846    2.13017299233127   -1.53888746181082
N          -2.29583074427634   -0.38684696994646    1.74401789384515
H          -1.45336418452434   -1.03315977948563    1.56281844142285
H          -2.94271722815664   -0.76980166192848    2.42586491949664
H          -1.90478626589053    0.50466598068274    2.04464346172278
