    26
        -50.46147013  Gyration_radius:  2.59081803187 Dipole_moment: 4.224
 S           0.03559951177834    0.43273296685028    0.61074430097325
O          -0.10061373835661   -0.01941274506630    1.97413731037715
O          -0.03924687848931    1.89694301108316    0.46716132131930
O           1.48226254011107    0.08379459870435    0.10129818485327
O          -0.88804223465562   -0.20494594871785   -0.31745178931674
O           0.78187072129309   -3.70381863286613    1.24284145249188
H           0.69195805696655   -4.44701231448873    1.84122987121239
O          -2.17368270616235    2.71664405102348   -0.96979278139388
H          -2.98741107392236    2.48209248273351   -0.52119991804579
H          -1.45108491830947    2.49799133169629   -0.34795403490845
O          -1.06770650031843    0.95036864820995   -2.66686998583927
H          -1.06791870962457    0.31693073669075   -1.91090497852585
H          -1.66760258019945    1.65731688885701   -2.35204330427601
H           0.25946544624527    1.56295641124534   -2.36430300766044
O           2.13531525746830   -1.51297563374271    1.96276325683539
H           1.86435749693283   -0.57537929146473    0.76845103550777
H           1.41651277373094   -1.08335196281788    2.45124736218651
H           1.78050689803006   -2.38937395679213    1.68356730653799
O          -1.44941478187044   -2.24989068436001    1.33886144542948
H          -1.11516580024526   -1.53894697237518    1.91010543510138
H          -1.51561524280052   -1.80369066588174    0.48163418581275
H          -0.10034408319821   -3.26020092580170    1.22021410031250
N           1.12412004487687    1.97494699242193   -1.82025226958290
H           0.72497593166141    2.10277150478371   -0.82793782002235
H           1.47072837956987    2.84249678686669   -2.21681155148841
H           1.85617620948068    1.27101333321600   -1.73873513789860
