    26
        -50.46147054  Gyration_radius:  2.59163254578 Dipole_moment: 4.218
 S          -0.54070536547666    0.40593976782359    0.31703944638598
O          -0.93952454298307    0.34802339756895    1.70264543022262
O           0.79275548671844    1.23275089503078    0.20633331623691
O          -0.26226574850728   -0.89660629942103   -0.27170740414892
O          -1.48375687561352    1.15119724022260   -0.53478793650064
O           2.35479861478942   -1.19567707617989    2.98694814063068
H           2.52262463797416   -1.55571976479331    3.85908079952480
O          -2.66500484376985   -0.38550371578147   -2.41507542590644
H          -2.36472661018599    0.19876904035567   -1.69040708747291
H          -3.20769038874455   -1.05913956373196   -2.00265438159944
O           0.01571987909012   -2.12379068079963    2.11003557893140
H           0.06792843736822   -2.12889986357369    1.14312693188726
H           1.54375802760810   -1.64975310913765    2.65298411642951
H          -0.50995940633076   -1.32430975844132    2.27913003725122
O           1.39005922343942    1.27820966860361    2.67223372925616
H           1.15186897533826    1.31779242422531    1.14961915415885
H           0.45468359491275    1.06047528702453    2.80459559663439
H           1.88320138970700    0.43883017635903    2.82752897898603
O          -0.07149975085054   -0.90841491620558   -2.88848840057668
H           0.19242118612663    0.55691287544828   -2.78349386619261
H           0.00297628630439   -1.09941827688625   -1.92364491448362
H          -1.04024268119893   -0.90617634585969   -3.03068448132117
N           0.19944878803504    1.59735386321473   -2.42165416170653
H           1.06736900171680    1.79010110342439   -1.92393166463766
H          -0.57343502179386    1.57962363291570   -1.67166279886720
H           0.01919772633981    2.27742998861214   -3.15310873308041
