    26
        -50.46147059  Gyration_radius:  2.59186005448 Dipole_moment: 4.225
 S           0.22001907992371    0.07871696884624    0.70791113516363
O          -0.77400593187693    0.39933838789499    1.74698060606454
O          -0.07155001772938   -1.42922719022059    0.36845240870019
O          -0.06746888970710    0.83222336342728   -0.50450964880582
O           1.58466154882763    0.19904761460781    1.16123268162932
O           3.17943033477248   -1.37450125936039   -1.97994988444256
H           4.11006848280783   -1.38859260003659   -2.20817823728400
O          -2.26888321750819    2.56847871361076    1.15425608932392
H          -1.69071437466547    1.85115670960501    1.48274603472071
H          -1.71720483763640    3.35065102056219    1.10677573155607
O          -2.61859136715274    1.08845859888053   -1.06135251030621
H          -2.83897298577575   -0.09415476639569   -0.17801672910768
H          -2.75719682369549    1.81740018918148   -0.42239352839089
H          -1.63533396438644    1.01680230371371   -1.09413046033643
O           2.52659016092059    1.08474561738733   -1.18725276942550
H           1.58511717851400    1.19721441004607   -1.38348889063012
H           2.51387924842408    0.91062072766175   -0.23139212386939
H           2.95296088572313   -0.42929948284928   -1.80451605683207
O           2.32313796911996   -2.26928114014328    0.39007264703758
H           2.66065489760156   -2.09426797072948   -0.51952032040056
H           2.50104812552183   -1.46114530341372    0.89510559956500
H           0.82929613365869   -1.89092325432365    0.33557425476940
N          -2.71546956240245   -0.84508126024970    0.61848915733019
H          -2.27518257972439   -1.68438969696764    0.24465624202804
H          -3.57836365494461   -1.05296803863450    1.11063565826267
H          -1.97792583869579   -0.38102266210636    1.25181289367135
