    26
        -50.46146992  Gyration_radius:  2.59032797177 Dipole_moment: 4.226
 S           0.43179332739030    0.44472796671843   -0.42460325609435
O           1.78460886936817    0.16262325053641   -0.83947756732199
O          -0.55894293237230   -0.37930129973476   -1.32673038595877
O           0.14452396501987    0.06182549006974    0.95095396843903
O           0.02680529054615    1.84277507307078   -0.65170335879506
O           1.54151860404684   -3.65459298015711   -0.33202119848756
H           2.25927490230496   -4.28933453650095   -0.35067667530737
O          -0.50837670802889    3.18243060745562    1.63123118313886
H          -0.22029212348482    2.79433774372710    0.78089688117240
H           0.28206478735207    3.25730685701124    2.16790058756588
O          -2.09211819941863    1.03049614484028    1.92314871333822
H          -1.29183076004476    0.48975928631944    1.72324899752072
H          -1.71131717860125    1.91253335961961    2.11191568172233
H          -2.52035027998054    1.21618585217477    0.50529021687370
O           1.13717606602141   -1.95944679064513   -2.35993930219843
H           0.00420335621405   -1.07462667494211   -1.80100944732205
H           1.78279732760728   -1.28979000953053   -2.08693225685055
H           1.22751292049793   -2.69610286604183   -1.71105580719007
O           2.27639550964391   -1.56682919547490    1.15198279740168
H           1.45585315897591   -1.18773623641810    1.50044990506187
H           1.80698858209916   -2.95729364367247    0.31526651670344
H           2.48571821400646   -0.95812316935479    0.42457092176419
N          -2.49717454485026    1.37614812974856   -0.58432827894466
H          -2.58683042377033    0.48600313641498   -1.07185587708331
H          -1.48177070341672    1.69869495151137   -0.74258021990877
H          -3.17823098707118    2.05732955328524   -0.90394272921801
