    26
        -50.45568724  Gyration_radius:  2.56685799087 Dipole_moment: 1.983
 S           0.38633457994272    0.30028770389475    0.88282857293355
O           0.87008649014941    0.36620916220178   -0.51949462150868
O          -0.13465303203217   -1.02403386095386    1.16676182576463
O           1.60756470879683    0.57871097876324    1.78159403107628
O          -0.58734100288896    1.34652311350598    1.13446275769467
O          -2.54447528517184    0.04440638187350   -2.03886526689348
H          -2.42093356741647   -0.80741956259186   -2.46117433679410
O          -1.03964454279773    3.37952773563611   -0.39701297785474
H          -0.37526555908923    4.04716960819193   -0.21677772249123
H          -0.92897846831684    2.68036678789309    0.29894404419518
O          -0.53951263709979    1.58812387521922   -2.12366373102093
H          -0.79235528623210    2.41124490099060   -1.56634567452232
H           0.12202186009902    1.04904615704216   -1.47084755986181
H          -1.38621884579671    0.99528046083654   -2.17242308891126
O           3.16071774207771   -0.84786169922097    0.35158716733681
H           2.84339197935269   -1.75962116281766    0.58206231810838
H           2.60803181557798   -0.55566087244642   -0.38530517826079
H           2.34509733398717    0.04336673120067    1.35070718913781
O          -2.62206518693934   -0.43870563129030    0.52298745502908
H          -1.75102883247558   -0.80879303204392    0.78168642743856
H          -2.65789574023912    0.40530729495340    0.98346934299480
H          -2.65772388463856   -0.14049328636249   -1.06296523689339
N           1.84057627614271   -3.07176942822244    1.04915524910370
H           2.03622804176919   -3.47201560555096    1.95802083690377
H           1.60289242497990   -3.83139400552398    0.42387482820455
H           1.01514860829881   -2.47780273520923    1.14673336909279
