    26
        -50.45568717  Gyration_radius:  2.56679526663 Dipole_moment: 1.985
 S           0.64818223481363    0.53296701332468    0.56012539593689
O           0.50549234805267    0.30769364593052   -0.90062394858491
O          -0.31237377783979    1.51934238638172    1.01874714497466
O           0.53331704746233   -0.72722908955239    1.27052641089214
O           2.05615667740850    1.12210297989403    0.77749067982155
O          -3.11372115485263   -0.66142536757463   -0.70786664585533
H          -3.02123730529091   -1.57490813078502   -0.98388662759273
O          -1.69905560755923    3.08555318854118   -0.50044242405271
H          -1.19416533633707    2.58317153169512    0.19097102440868
H          -1.14969844251680    3.83201765732073   -0.74659018181886
O          -1.62599530810552    0.98639501872653   -1.92500487760395
H          -1.77566194327956    1.89300069485564   -1.46941494475811
H          -0.67225345390924    0.67725170870524   -1.53864426039544
H          -2.29888685354693    0.32762971198084   -1.49594793590068
O           3.13057519515211   -0.45971294941434   -0.90642458209252
H           3.10243147307698   -1.31551527271687   -0.40450688140623
H           2.28531630626663   -0.39952949060503   -1.37095570882887
H           2.64079687824985    0.56698904211886    0.17227969325045
O          -2.06302839272141   -0.53068067155052    1.67560041008541
H          -1.11076207284859   -0.75180916806330    1.59246619747470
H          -2.06054163828149    0.39200003131029    1.94832033695984
H          -2.78826448435413   -0.61977113337577    0.23648400627219
N           2.62656696600006   -2.56297281540902    0.67377163850133
H           1.81825966164588   -2.03769835124256    1.01196716224691
H           3.24041157450084   -2.71803012724240    1.46348934356325
H           2.29813941884279   -3.46683203324209    0.35806957447115
