    26
        -50.46146979  Gyration_radius:  2.59000258031 Dipole_moment: 4.235
 S           0.58921100228976    0.38888931435799   -0.25911373838384
O           0.52712233481481    0.98632247970368   -1.60424417575379
O           1.91156262646181    0.40512583235733    0.31773174526671
O          -0.35132373048791    1.31179927945104    0.59985128075953
O          -0.03286467222858   -0.92798714874615   -0.27176373899566
O           0.80898982386507   -0.79944009100735    3.81547399020649
H           1.37285095590067   -1.08240052299894    4.53679163129096
O          -0.17233371366667   -0.78536037312387   -3.51891567890374
H           0.48961866950549   -1.47444351814603   -3.59239497592126
H           0.19559239289994   -0.12424722377224   -2.89912349139810
O           1.64325999440851   -1.95601641928864    1.56411622017820
H           0.86453850540742   -2.01383033341405    0.99079182284695
H           2.11138723341275   -1.19130863182039    1.19084814983714
H           1.07700430672311   -1.33463516150869    3.02980895874360
O          -2.18247954251280   -1.11039720971436   -1.76538322001841
H          -1.67915827239708   -1.20487090908794   -2.59997568219893
H          -1.48247352974416   -1.22268575144457   -1.07954186089770
H          -2.27191714914953    0.37595967175443   -1.66838832535610
O           1.15963098072997    1.56824218483165    2.62288145734371
H           0.97095670359551    0.78049398002879    3.18467272377281
H           1.86033157728075    1.29237966325559    2.01232311809975
H           0.14121683594154    1.48648192720641    1.46727541634413
N          -2.00001750197762    1.43782954474701   -1.55802142308568
H          -2.17185567947942    1.74665070681497   -0.60245181742861
H          -2.44949295067013    2.03943144116754   -2.24070529161393
H          -0.92935719088469    1.40801725844137   -1.67254307471205
