    26
        -50.45568722  Gyration_radius:  2.56718871468 Dipole_moment: 1.977
 S          -0.36505925680337    0.30634066692266   -0.88647077995687
O          -0.74376703523059   -1.09329819520802   -0.82816156358719
O           0.92659041597397    0.51304448462873   -0.18371294279180
O          -0.13639103116159    0.71897006560749   -2.35431676024621
O          -1.38611856388720    1.18211830973320   -0.34214795100900
O          -0.45334856420456   -0.22288384478578    3.22451901410359
H           0.04480531927740   -1.02299286089059    3.40020197903193
O          -0.95854738599532    3.20797707386806    1.20641294399419
H          -1.25363213585689    2.49631541414427    0.58060261431899
H          -0.69752303515627    3.95389688474319    0.66321037596640
O           2.15625235562587   -0.38853379994250   -2.45480983405829
H           2.21769996281397   -0.14597772357321   -1.52137763029592
H           1.90091599627291   -1.34755629141328   -2.46836899700319
H           0.76313389602357    0.32104114823714   -2.57467770052127
O          -2.17672385513291   -0.85212260934253    1.37047424028940
H          -2.63750797385549   -0.04831998244653    1.11097681730835
H          -1.67317758749081   -1.10203818202394    0.56639604514229
H          -1.16944401780308   -0.47589833414588    2.57449111805736
O           0.82789476132157    1.59964582558233    2.02135567097571
H           0.93710205702353    1.12910381113359    1.06154351969972
H           0.15082843312129    2.34721578511084    1.83561667283092
H           0.33541076382943    0.89318091497076    2.59493153480783
N           1.04842585311825   -2.81566847003666   -2.21707484550651
H           1.41016571899190   -3.57124541581123   -1.64894164222213
H           0.62810823369768   -3.22551113819742   -3.04162278254009
H           0.30390668549961   -2.35680353686629   -1.68904910678466
