    26
        -50.45568721  Gyration_radius:  2.56718511093 Dipole_moment: 1.978
 S           0.37929084174803    0.02486326640213    0.93194178205178
O           0.26129108882847    0.44346485923070    2.41112487510758
O           1.76169524288513    0.21643641836246    0.53432463130094
O          -0.05801457115869   -1.35038493427507    0.77939527807191
O          -0.51325588781557    0.93006798373953    0.16453339239267
O           0.58914429850386   -0.32153292218056   -3.19410404141264
H          -0.24203769068908   -0.71117927894340   -3.47070481502172
O           2.66321866909883    2.19825673631588   -0.86016091180562
H           2.79416301794716    2.94565967977402   -0.27377886171940
H           2.45888782509041    1.41981599845593   -0.27924937841543
O          -2.26136184964577    0.77065255143312    2.26252419002352
H          -2.08492863323891    1.03984638429946    1.35131256709176
H          -2.56999886750747   -0.17124770117633    2.21089431195723
H          -0.72724566062426    0.59607497852386    2.53582280075484
O           0.38528093372153    1.86150091375929   -1.92779851384870
H          -0.05975806883638    1.49439428568159   -1.02129967454429
H           1.33614605509889    2.10880132763866   -1.63374886495554
H           0.47184466944402    1.02131822660590   -2.52549752064482
O           1.49401940705529   -1.85679926140128   -1.28948024329380
H           2.28744058490766   -1.44658222872906   -0.93175923079609
H           0.85581720954772   -1.81799367186556   -0.54533631128557
H           0.98212224525876   -0.94817280586608   -2.52161804612586
N          -2.62953554124929   -1.85655598154916    1.89235715907442
H          -1.70550646493251   -1.86247792297344    1.45668326122902
H          -3.28245829957500   -2.26984061085223    1.23858748026835
H          -2.58626053384132   -2.45838628041169    2.70503466455961
