    26
        -50.46147008  Gyration_radius:  2.59071648542 Dipole_moment: 4.224
 S          -0.45348642338613   -0.23368682558572   -0.55056593582869
O          -0.74104224619970    0.48262223030014   -1.76956720185809
O          -0.39433698711630    0.61421321189187    0.63216083132812
O          -1.35935932119257   -1.36994767976264   -0.30888726590827
O           0.96150881047826   -0.90851991806470   -0.67899918919171
O           2.40887156908215    2.71002989824923   -1.64914743489903
H           2.60007416914021    3.47205662182932   -2.19796205283852
O          -2.87744242891290   -1.07062872820605    1.90446351824713
H          -2.44661098085919   -1.18994685443515    1.03453319992616
H          -3.46661596749530   -0.32118369051456    1.80620553481704
O          -0.41984445988197   -0.67464159805372    2.91789908377206
H           0.03639424666217   -1.86720354671652    2.14507500343109
H          -0.29173993830178   -0.02063661851466    2.19078052854279
H          -1.38875578024977   -0.81565387926463    2.90897635136888
O           1.76713413578994    0.34996911695597   -2.73034376099741
H           0.82508888834771    0.53318130659209   -2.86761640921368
H           2.15277257377803    1.18719307386520   -2.38087648231137
H           1.40876518091863   -0.47566269523041   -1.47785656461984
O          -0.10116857632664    2.88993468260637   -0.77199102814686
H          -0.12838731180840    2.39817116808969    0.06226118480950
H           1.51815146998375    2.87165611242450   -1.25405226366422
H          -0.50034559935212    2.25685837564035   -1.39106740699807
N           0.20584532774823   -2.58322438815135    1.32528767521894
H           1.12957735322253   -2.44067379729555    0.91979550587490
H          -0.49818041772022   -2.24559937034057    0.58318645789441
H           0.05313270346291   -3.54867620837879    1.59830812072871
