    26
        -50.45059455  Gyration_radius:  2.46317578005 Dipole_moment: 4.138
 S           0.71747004213666    1.85622675893380    0.20821746561245
O          -0.78298231750465    1.87368612164924    0.61136882302093
O           1.34929284219443    3.02353853006636    0.69743400031466
O           1.28176864805022    0.59653939006263    0.65381345411155
O           0.66608572250050    1.84155979018129   -1.32868234256459
O          -0.69848954120057   -1.88647353627697   -1.02081418805746
H          -0.98693396656248   -2.78331543464564   -1.19230386375058
O           3.34230209276135   -0.56657827179982   -0.59835926898829
H           2.69976341000115   -0.19915797101066    0.03814982854602
H           4.07902037638560    0.04576569713292   -0.62652327136818
O          -1.88640205208490    0.49340928015224   -1.25111116569809
H          -1.27304166952113    1.33328660592578   -0.08190187247498
H          -1.50896703616183    0.86952643385455   -2.05124128816139
H          -1.55569566581665   -0.43068722531593   -1.19320545743781
O           1.23702172803297   -0.42277325741892   -2.23133278961370
H           0.91588198056101    0.90442928349576   -1.72041636787431
H           2.09622530606049   -0.61030203454451   -1.79295520288759
H           0.59643761848049   -1.05357931657187   -1.84463621880324
O          -0.12316881031517   -1.57680450794244    1.45596290251546
H           0.51825464990764   -0.85667071062519    1.33166262777404
H          -0.89945867969638   -1.15189025606556    1.88979909913588
H          -0.46219275832668   -1.84198287201183   -0.03623594566702
N          -2.16457485103352   -0.07120781776624    2.45545382412926
H          -3.08027386046993   -0.19259702090813    2.04140967805906
H          -1.79588535484506    0.81599313703222    2.12753385553498
H          -2.28145787353025   -0.00994078558391    3.45891369458834
