    26
        -50.46147057  Gyration_radius:  2.59135758201 Dipole_moment: 4.220
 S          -0.26644127004010   -0.67920360737559   -0.15798749510402
O           0.39586290038685    0.47348113502656   -0.75253265128911
O          -1.56090861888889   -0.96742245767527   -0.72679183635315
O           0.64491666440239   -1.83656413985237   -0.15598024994326
O          -0.44525591059311   -0.34447401027268    1.36843465438878
O          -3.18776970441724    2.37688539405902    0.29735996993016
H          -4.03677959842633    2.71611053136069    0.01002658328060
O           2.82363497957456   -1.47376444545717   -1.70958767638869
H           2.56516547789846   -1.37430981770123   -2.62701524964899
H           2.00893041681458   -1.71556928549271   -1.22546697579884
O          -1.86843562624291    1.45789296613940   -1.82800998296227
H          -0.92569000073255    1.53302573070580   -1.61970814238604
H          -2.03261693732864    0.51181991926976   -1.67990355737788
H          -2.68744927375539    2.15500237324869   -0.52485658240652
O          -2.96676664532910   -0.05920351371070    1.37764338565444
H          -1.43682817531809   -0.19367058347024    1.51051385484891
H          -3.11511693040520    0.88058020467323    1.11926158573960
H          -2.92969945054544   -0.55630550492333    0.54614694358869
O           2.93893242345915    0.71508587295165   -0.15462337491806
H           1.99746620721598    0.86722343458452   -0.40657388947252
H           2.65264457176971   -0.16134229275223    1.01880947615950
H           3.22900326199833    0.04812904969080   -0.81023814738902
N           2.19500514229631   -0.91964270449497    1.67399040549505
H           1.55258149193542   -0.47637064472684    2.32888855755457
H           2.87627786522507   -1.50631251984861    2.14483912512066
H           1.57933672903161   -1.47108109396551    0.98336125968397
