    26
        -50.45059455  Gyration_radius:  2.46317611356 Dipole_moment: 4.138
 S           1.26134095884951    0.98052633403805    1.20467860859566
O           1.25988490225768   -0.51492355059280    1.62636650014094
O           2.39617949465311    1.62256719347877    1.75338204120808
O           1.13990969202973    1.03412811980535   -0.23968423024510
O          -0.04389613082641    1.51705144613389    1.81575285110820
O          -1.95191528741835   -0.66049736804274   -0.91786777182148
H          -2.60717525888318   -1.05502377020166   -1.49399087036170
O          -0.00775370229986    3.09856898182420   -1.49965889982826
H           0.55835369563985    2.36207507165360   -1.19949929903225
H           0.44309673392244    3.90739706984618   -1.25258990346152
O          -1.79043015375789    1.86522546626001    0.05611121957574
H          -0.77879446312621    1.68018140648047    1.08954178695156
H          -1.31765796660572    2.42661249395385   -0.59726812550964
H          -1.92816544546565    1.00178266062557   -0.38354114159236
O           0.40749021880537   -1.01929022713171   -1.84833977520238
H           0.80931494189919   -0.23508369412034   -1.43721507999611
H           0.80155031978030   -1.78556305172260   -1.36986886549755
H          -1.05123726515197   -0.81394181646299   -1.35655316960029
O          -1.23895927483862   -1.10416237508718    1.61647050888509
H           0.29816155069332   -0.81138156453854    1.63025230772998
H          -1.63446930234065   -0.37624204967888    2.10415248431601
H          -1.57240248509503   -1.03695647008064    0.69398872853335
N           1.51804742156234   -2.89337616414810   -0.20894710110777
H           1.76923923868601   -2.23865828774815    0.52510731967462
H           2.36103435167700   -3.36705433979098   -0.50785869199406
H           0.89925320534882   -3.58396151475270    0.19707855853303
