    26
        -50.46147057  Gyration_radius:  2.59218426335 Dipole_moment: 4.224
 S           0.68067857164962    0.29120189186330   -0.08856175401078
O          -0.66303608846874    0.60787759059355    0.37478736872003
O           0.64978613865542   -1.21877285393036   -0.52798663867629
O           1.11774590539556    1.09313271000551   -1.20583575330755
O           1.61992199057175    0.30388654556158    1.04625745998066
O          -1.61781775237301   -0.11162389525798   -3.64705820369113
H          -1.82354704089671    0.25834239915777   -4.50685366539423
O           0.58293220308309    1.42349644344762    3.27423964482733
H           0.38670588780868    2.34903762168695    3.12180560234050
H           1.05677009522594    1.11424380561457    2.47644359864488
O          -1.29460879919256   -0.41393348867415    2.70708512635062
H          -0.81727187105083    0.27206780444548    3.21723258237309
H          -1.29876921125136   -0.03858000688437    1.79486395827098
H          -0.19470893042855   -1.39517313453795    2.47327486691683
O          -1.34880261551351    1.88131082938457   -1.89862662155416
H          -1.57755053981752    1.52025120888019   -1.02989059034910
H          -0.37769878698732    1.88949014164224   -1.86390007082631
H          -1.64070174656238    0.64286915720904   -3.01004793037018
O           0.87219802085045   -0.86650834452257   -3.03121200781431
H           0.72275253714461   -1.22074655624602   -1.53826728914956
H          -0.04943152512016   -0.72014232403167   -3.34933709991579
H           1.20510575987759    0.00916089025468   -2.78182106843649
N           0.73791694828235   -1.85830146284237    2.11363723264514
H           0.54611026975352   -2.45768002954220    1.31236362079206
H           1.25018813169275   -2.34577551605817    2.84161415571530
H           1.27513243765309   -1.00913141731848    1.72579349594198
