    26
        -50.45568719  Gyration_radius:  2.56716360823 Dipole_moment: 1.978
 S           0.61870875927268    0.14393279273002    0.78011878411965
O           0.54520396341159    0.71628497743711   -0.58805563401307
O           2.01421672389976    0.50058574805964    1.32995545907759
O          -0.36340070034619    0.76911637782408    1.64641141648970
O           0.47245145248485   -1.29872604719106    0.72356476082308
O          -3.07981115423476   -0.11138439558112   -1.07393536129125
H          -2.97781882624052   -0.74653441904644   -1.78483757293341
O          -1.66802617042527    2.93811380489309    1.11873655653698
H          -1.10417066407337    3.68689075393758    1.32120623962919
H          -1.20002095112159    2.13418057351726    1.46485993395028
O          -1.53228483515252    1.88933091535219   -1.18863658751679
H          -0.59906904178136    1.39762625565637   -0.98365674820700
H          -2.22650468537855    1.12210339227977   -1.19440467183036
H          -1.70127118403301    2.42851679649970   -0.33278441458424
O           3.16893091163819    0.00181522287525   -0.88593758374499
H           3.11841762686506   -0.98926875973874   -0.90488476092409
H           2.34643398800880    0.31458411693459   -1.28538943807564
H           2.62751517425949    0.32807192530057    0.54875057478876
O          -2.14111610433325   -1.27879128004384    1.06144662584438
H          -1.18586018677955   -1.44736461924337    0.91429417167582
H          -2.15210412829589   -0.63641801381128    1.77768743553327
H          -2.79811203531220   -0.58000874255246   -0.23709956754969
N           2.59439032450691   -2.60416150850750   -0.65511150590638
H           2.28296735390435   -3.20394359011654   -1.40864225563479
H           1.76998983651603   -2.31297513015257   -0.12667384653727
H           3.17034453276915   -3.16157714727732   -0.03698204969075
