    26
        -50.46147012  Gyration_radius:  2.5905881383 Dipole_moment: 4.222
 S           0.20370505499764    0.68469709363718    0.23157784323533
O           0.47039649192000   -0.73595703712085    0.40936370883092
O           1.36931601921066    1.34111794490037   -0.38531216768079
O          -0.90893332202477    0.78805481422618   -0.87542776341754
O          -0.26409338212996    1.34552748565856    1.42587156227462
O          -3.46964899421244   -0.77244973311387    1.79541251558840
H          -4.06466818409790   -0.79676860829696    2.54628239593916
O           3.58732046221652   -0.19886167866809   -0.37573275813064
H           3.86833969926627   -0.37356845677672    0.52367306127641
H           2.85858790563467    0.45012005626544   -0.30857233481011
O          -0.96041508056733   -0.92120469774676    2.68062140693992
H          -0.73595764358981    0.01971266635825    2.59164978504089
H          -2.56587462513832   -0.94498843008858    2.15448133272389
H          -0.44688894482680   -1.31831632531509    1.96171624870207
O          -2.82133274029174    1.53772650456926    0.61506123798593
H          -2.11526087334036    1.79197707534385    1.22879480111242
H          -1.75474250296871    1.07666061712164   -0.39898027899443
H          -3.20252955552808    0.70452731704917    0.97879414271209
O           1.82280750036113   -1.85993346644899   -1.53797942245397
H           1.22955498097176   -1.66558628327740   -0.77436974876524
H           1.37674080455697   -0.71412091131390   -2.38424549835834
H           2.68834260342638   -1.52533584602419   -1.22560841532986
N           1.04087115156953    0.28546815100143   -2.70269868230858
H           0.02944112799590    0.29354958490814   -2.82560574102725
H           1.52838340307168    0.62942031260684   -3.52372150076760
H           1.23653865353799    0.87853185027596   -1.82504574047773
