    26
        -50.46147052  Gyration_radius:  2.59145088894 Dipole_moment: 4.218
 S          -0.54397682533330    0.50928711107529   -0.05161170026947
O           0.00764686970316    0.12180175066409   -1.47281274060228
O           0.20065622151395   -0.29480553296455    0.90743721788856
O          -0.39199247989834    1.93198685958934    0.13522440601076
O          -1.94924672291012    0.06895483604110   -0.09246248055983
O           3.41278417106566    1.99822557555255   -0.50414840569363
H           4.01250348217022    2.72998338691536   -0.35147212145514
O          -2.61030197290991   -1.56751648954261    1.95128048005145
H          -2.47139406181230   -0.89288850799805    1.25682450261795
H          -2.53272237062908   -1.10511518893632    2.78711272939049
O          -0.45610114721516   -2.83458058248883    0.96264681559069
H          -1.02042376268730   -2.62506237554234   -0.40342989252762
H           0.00580945669266   -1.96510819352446    1.02236737338657
H          -1.25453375169462   -2.68913162385382    1.51039906118605
O           1.21133692386671    2.29444201307727   -1.99316973834844
H           2.10218592629204    2.19242584560504   -1.58362332974210
H           0.53249528119030    0.92355882116109   -1.80092612580119
H           0.64439842207430    2.66319740987320   -1.29859151601405
O           1.82966233429427    1.72712144424540    1.62248938356920
H           1.03703604167080    2.14352638115392    1.24525044704434
H           1.57038353574398    0.79463834603965    1.65491351256852
H           2.92697226302548    1.85877004531507    0.34440281348464
N          -1.47219477017392   -2.15169531732693   -1.28943411637505
H          -1.82944501940783   -1.21821833430414   -0.88767384006587
H          -2.21253732088351   -2.70645547546496   -1.70677746516035
H          -0.74900072366170   -1.90734217434512   -1.96421526017166
