    26
        -50.45059454  Gyration_radius:  2.46317345334 Dipole_moment: 4.138
 S           0.87011192007441    1.29206831803250    1.25586266572465
O           1.39819428589574    0.68495489490205    0.04906236384999
O           0.21099800628119    0.16894356915239    2.10341773013126
O           1.80340400999385    1.99591705586567    2.05255970038051
O          -0.32299754180375    2.17947616832974    0.86354753872961
O          -1.47397779477299   -0.80751514141240   -1.50457736734825
H          -1.91013612172073   -1.35461401704371   -2.15832800414548
O           1.62264382875640    2.03940657573583   -2.24915596929334
H           1.73871725088997    1.47132703227677   -1.46378571125980
H           2.15825791566538    2.82049055560307   -2.10241905184400
O          -2.08926637115924   -0.10124333576481    0.99555612125558
H          -2.39837744927276    0.80550758769975    0.91566065864171
H          -1.95808299670537   -0.43393697809918    0.07971351274805
H          -0.69985547931092    0.00709400087408    1.70723612997767
O          -0.94271555045766    1.85150468496101   -1.53983222171661
H          -0.08506690583455    1.99673433147797   -1.99691195617698
H          -1.14886074676341    0.90162052096721   -1.65396195109333
H          -0.58445490687207    2.06266383937840   -0.14246563834858
O           0.80419215148644   -1.79286813235545   -0.87196428679658
H          -0.57397684487719   -1.23653935474721   -1.32248613678628
H           1.22083909829766   -0.95283494277843   -0.61464113774298
H           0.68901288611523   -2.28723836015954   -0.02714722366563
N           0.44742429298858   -2.80046158990790    1.63615982012355
H           0.55818641344531   -1.91027014755926    2.11142855082871
H           1.13616376449030   -3.44188196749101    2.00838758592349
H          -0.47037712483310   -3.15830517793850    1.86908423790309
