    26
        -50.46147043  Gyration_radius:  2.59136333381 Dipole_moment: 4.227
 S           0.37171597635107    0.64757493027658    0.04798481086055
O          -0.69006401598728    0.52402532741328    1.20198159285278
O           1.65863602616873    0.69308452511076    0.76351092208686
O           0.27696519321665   -0.58239918546797   -0.72597214997609
O           0.09468011379387    1.84093836155700   -0.71445216077540
O          -3.54095734771296    0.89566870283105   -1.59594936141107
H          -4.11498079461958    1.33311917844330   -2.22650065223447
O           3.42150951750905   -1.16465434643544   -0.09263077076306
H           3.66180390791459   -1.00173482400526   -1.00589937281324
H           2.87866776553167   -0.39923905098744    0.18337299435205
O           1.28428787345193   -2.70340111502289    0.44507343928160
H           0.76681648694229   -2.07235928305671   -0.10898667308311
H           2.20923244668229   -2.47868213260535    0.21561932602828
H           1.13251124540288   -1.95515663711125    1.72761582244762
O          -2.33427773349383    2.26404588082462    0.35929521023578
H          -2.91275706973836    1.77929455580920   -0.27484189824033
H          -1.42932707648122    1.17859004721163    0.97661212402664
H          -1.58186032315812    2.58165813034188   -0.16309949000436
O          -1.14547898696905    0.54995754930422   -2.71166117047669
H          -0.75426020196611   -0.22390656545707   -2.28029538262814
H          -2.70809148005601    0.68381809383789   -2.08278408888793
H          -0.68913503659164    1.28169815874838   -2.26438130418298
N           1.05613650503065   -1.13677518618498    2.46106230864879
H           1.40098885694086   -0.29078375015465    1.89052817146717
H           1.60884947177627   -1.29553462885219    3.29736069274874
H           0.07838866005850   -0.94884673639588    2.67743706046064
