    26
        -50.45568723  Gyration_radius:  2.56717932473 Dipole_moment: 1.974
 S           0.69374363422671    0.10113642067264    0.72125104355857
O           0.76293871520408   -0.00532202622358   -0.75819839177211
O          -0.20305013025286   -0.90953072625430    1.25046237257541
O           2.12162554115752   -0.14948127592928    1.24580081280002
O           0.31388836215979    1.44448735013496    1.11730996215004
O          -2.77404358254051    1.10902609187317   -1.31288652324494
H          -3.11577499471130    0.29041615175919   -1.67662856781916
O           0.30754950857611    3.52102469921218   -0.42334912265618
H           0.31615734149570    2.82233669368706    0.28150577859869
H           1.20333141295094    3.85849756896913   -0.48009417615120
O          -2.33779301837088    0.63540327025197    1.21472488546304
H          -1.91424209716515    1.41280461372970    1.59157113660130
H          -2.68128248942816    0.96100337551638   -0.32862286202307
H          -1.64639113648211   -0.05821366460368    1.27351213993176
O          -0.42888711236999    1.71644241475953   -2.04950277320384
H          -1.41882187583345    1.51641415215440   -1.82467191333557
H          -0.17546672069510    2.55956850237281   -1.52364776406187
H           0.11727166562019    0.94221385988110   -1.54238815781908
O           2.54142217577762   -2.05215310268811   -0.39613181875236
H           1.96949052040773   -2.76458778259415   -0.00818396167162
H           1.96848015453618   -1.54968500369586   -0.99046959533006
H           2.44406146658144   -0.92749009351529    0.69181825468969
N           0.70377227783567   -3.57409843270549    0.82099820225888
H           0.23567053170766   -2.70119047811885    1.07120272795305
H           0.96826249341838   -4.03489636643297    1.68253159852982
H           0.02808734624619   -4.16412620219901    0.35208670278293
