    26
        -50.45300977  Gyration_radius:  2.43479420101 Dipole_moment: 5.196
 S           0.72906623472258   -0.03470488670235    1.96342831746959
O          -0.79646272605273   -0.09509001701281    2.14260637808499
O           1.38045843235474   -0.30946738776840    3.18838560928367
O           1.04322985561970   -1.14263943846442    0.93263565265334
O           1.05347864591350    1.24176921811320    1.34435047985657
O          -1.42339619467950    1.16975550280871   -1.41640316781618
H          -1.73428117881756    1.73247671610842   -2.12649219377364
O           2.64977903088824    1.71301385270234   -0.74975880741830
H           2.12340005018483    1.72134449063564    0.07336576123132
H           3.56199191320038    1.58675977331450   -0.48475742289762
O          -1.23680701297528    2.46007692240623    0.85648432709400
H          -1.37590579855878    1.74083433755737   -0.60225662195283
H          -1.80380676167194    2.06447075338083    1.52376190131344
H          -0.32980999994457    2.16373704514696    1.08165115183605
O           0.92249608578436   -0.20539029787175   -1.42462610776202
H           0.08545416810484    0.29427848982159   -1.50794278351864
H           1.62786595489582    0.47638688621315   -1.38337473220921
H           0.98323530668742   -0.77341201635200   -0.02237048941949
O          -1.97746803541610   -1.02207408336128    0.13765104853259
H          -1.44975169493617   -1.77735656062895   -0.24376270223657
H          -1.29293068581021   -0.50720699435961    1.32369027968738
H          -1.95249329638640   -0.31290156130406   -0.52592276945348
N          -0.40784161429322   -2.90226122891024   -0.93558170760485
H           0.21248562026013   -3.12930203264620   -0.16775052121768
H           0.13654025757717   -2.38911018335802   -1.61935802089639
H          -0.72852653664970   -3.76398730946934   -1.35765283886357
