    26
        -50.46146989  Gyration_radius:  2.59051481618 Dipole_moment: 4.222
 S          -0.34862676842472   -0.06539789711108   -0.66231518146526
O          -0.63806789014772    1.01492001709813   -1.57378414058792
O          -0.52650157199309   -1.40081649118123   -1.25816553925384
O           0.96243550938851    0.02738935228404   -0.03469143125930
O          -1.39917035811775   -0.03874089801596    0.50796144683170
O          -0.40649655445374    3.81319680765692    1.07476167412415
H          -0.39113236559314    4.75855034056558    0.91831604573297
O           1.77167138871431   -2.81018271497786   -1.41663715887874
H           0.93175271751743   -2.31526598294573   -1.49569909267202
H           2.39119978404887   -2.37349053361520   -2.00306326002148
O           1.75942108857772   -2.15276989506471    1.18929197588101
H           2.04226186861794   -2.59759481805977    0.36417490555333
H           1.60898871954829   -1.22455806486459    0.89175724606644
H           0.31981151002949   -2.54451095889506    1.23056716932007
O           1.27825558350909    2.63347785349583   -0.61987316970926
H           0.61816524206048    2.30867695542052   -1.25395690173429
H           0.30904890266817    3.42929175416552    0.51241256974516
H           1.56032410771358    1.81391011727178   -0.18700781227144
O          -2.35043386240021    2.27384944365030    0.07385901171668
H          -1.74515695161343    2.89229368334906    0.54612192236406
H          -1.96866843209764    2.15812467854343   -0.80973844127206
H          -1.85621870263796    0.86337759132746    0.45563584044682
N          -0.74925919959905   -2.63645537701961    0.98138373281883
H          -1.09315998219885   -3.58968584116901    1.03701561509532
H          -0.78125528308263   -2.24147132254304   -0.02030980625089
H          -1.29918850001924   -1.99611778935216    1.55198278974012
