    26
        -50.45568720  Gyration_radius:  2.56696705105 Dipole_moment: 1.977
 S           0.89959753193443    0.10192450509097    0.43964920587082
O           1.66952316561253   -0.49121426621817   -0.63793129011079
O           0.22929345390744   -0.89223585854516    1.25704545448451
O           1.87599022028957    0.91527340337323    1.31251661984146
O          -0.09053746751411    1.06854367261454   -0.09896074232468
O          -1.76040410373506   -1.42741343023605   -2.34584857919984
H          -2.61562423426782   -1.44297094552708   -1.91272347772489
O           1.75345920555020    0.36726147585149   -3.07546236097362
H           1.85119418088020   -0.03051886081132   -2.17136947284230
H           2.37539445169459    1.09586008100442   -3.11873319103073
O          -0.66608893676676    0.85198577067389   -2.48098668992923
H           0.26218534663611    0.69764488698449   -2.88861893242047
H          -1.15466825490722   -0.05960643348028   -2.50940616722162
H          -0.45043283229287    1.00241333422666   -1.43903485146204
O           0.01361992625514    2.32744684487631    2.32740106095172
H          -0.41654102975851    2.22153456139489    1.46853379141149
H          -0.41718790612911    1.66535691756258    2.92841300880555
H           1.27217774211763    1.53946230197599    1.82434716659821
O          -0.11422544679823   -2.61472528772821   -0.70765052907106
H          -0.07398433213867   -2.07872448937598    0.11309397933028
H          -1.14133824391632   -1.95217869306873   -1.76216635039716
H           0.77249016992576   -2.53941839499143   -1.07346489106409
N          -0.98224509090077    0.18884923794041    3.59584982309164
H          -0.60500427058617   -0.36712974850127    2.82626240656638
H          -1.96574229702726   -0.03331685099179    3.68492390109761
H          -0.52090093806416   -0.11410374409650    4.44432110773857
