    26
        -50.45568729  Gyration_radius:  2.56653877119 Dipole_moment: 1.974
 S           0.42844661530609   -0.10061242017723    0.91077958046336
O           0.84563203598708   -0.48100249805014   -0.46261737750812
O           0.65607807774762    1.31447757600754    1.13745974612345
O          -0.95304397466364   -0.48447210342138    1.13440677561126
O           1.34343359021354   -0.87786242959598    1.87773685644548
O          -1.40399623643501    1.98346467042148   -2.16914281167108
H          -1.98015699692196    1.35053802731070   -2.60118128541574
O           2.06579437949585    2.87523714813662   -0.36601762942471
H           1.54532424165777    2.37848869967323    0.31778539655779
H           2.98994420609413    2.76438691973929   -0.13534725565634
O          -1.96311030394245    1.82734047912438    0.37382891479178
H          -1.33920191180532    2.38230676195816    0.85174860673171
H          -1.66880616254530    1.99046403958662   -1.20526244713760
H          -1.74167463901746    0.91852311834297    0.66994766945566
O           1.04358912972754    1.33795028370319   -2.10741322489589
H           1.51162190264378    2.05580171971838   -1.54364533675784
H           0.98400637904347    0.50282737283317   -1.43405619330247
H           0.06169905646086    1.64493235970384   -2.21699740841750
O           1.22575714190411   -3.01432782187149    0.49408239816369
H           1.38759394497442   -1.79955442252769    1.47188443054903
H           0.29761865330811   -3.31018675580856    0.68442193383499
H           1.16096483672833   -2.41680281286430   -0.26270827379763
N          -1.37577431239331   -3.29912238081142    1.06478612642501
H          -1.40910799408686   -2.28050660500188    1.13546296708095
H          -1.62223787153126   -3.67504653533125    1.97167089502745
H          -2.09039376798462   -3.58724238079337    0.40838695673905
