    26
        -50.45568725  Gyration_radius:  2.56716076099 Dipole_moment: 1.974
 S          -0.76803000297786    0.53526568132704    0.36811585569643
O          -0.86110471894944    1.46242612143190   -0.74427903045350
O          -1.49624006642993    1.17596622229239    1.56648166608745
O          -1.36408479162116   -0.75363845947169    0.06951378051044
O           0.64730853941025    0.35743819769361    0.78048132652502
O           1.81731501833748   -0.75832205882170   -2.60234764626884
H           2.06178266626985   -1.65543829305299   -2.36857990568196
O           1.02606700839480    3.03357632782941   -1.55381560175731
H           0.20848426188295    2.52465112074535   -1.31371907436659
H           1.03662726482939    3.80932379080006   -0.99023730227253
O          -0.29554095793075   -0.29741205071441    3.26356102152764
H          -1.13782122841289    0.66840158493720    2.36022928203619
H          -0.73747927469898   -1.17085587446536    3.09942138871670
H           0.44530819711566   -0.25726296495354    2.64427757103390
O           2.36748357961343    0.99371849195939   -0.85910112663076
H           1.66440293510646    0.70699953635685   -0.09858486631692
H           2.22978982710758    0.29314854122502   -1.60794812324601
H           1.97989281384899    1.87569242964531   -1.21053347171436
O          -0.78805497370602   -0.68324564970996   -2.50118802355954
H          -1.05635374367282   -0.86085626006230   -1.57433263554071
H          -1.06297309905889    0.22700017882987   -2.64833289711331
H           0.81876527238460   -0.74240030613566   -2.64569419007908
N          -1.54508407902633   -2.47506965594672    2.33018954424183
H          -2.50212986307629   -2.63068609859974    2.62064975250749
H          -1.11607131209127   -3.38083094932451    2.18833213044205
H          -1.57225927265264   -1.99758961381896    1.42744057566320
