    26
        -50.45568727  Gyration_radius:  2.56739177197 Dipole_moment: 1.975
 S           0.41098404582837    0.27485371080304    0.87587563806782
O           0.67696760467314    1.65091193140918    0.49963984925809
O           0.44555136352041    0.20144655747853    2.41553901052131
O          -0.95986333078315   -0.12127793920292    0.46506864808680
O           1.38216570982881   -0.65084052451925    0.32296072425431
O          -0.45192064656296    0.69567327188726   -3.15787639701830
H          -0.53133941674313   -0.19340755151960   -3.50775499170750
O          -1.09910259657871    3.37681681923094   -0.24304397343871
H          -0.33148034541534    2.83324915708609    0.07391081877065
H          -1.51658721758433    3.73759402552995    0.54126821936132
O          -2.03991980515067    1.25306991000815   -1.26619978868565
H          -1.45887665077450    1.05605187386672   -2.09938530217142
H          -1.62580769780685    0.62103168769729   -0.50218230128369
H          -1.78527273062213    2.19472277844394   -0.94955653596281
O           1.81366567465850    0.75200244706050   -1.86609767243763
H           1.88456631903153    1.60814312132612   -1.43278821883016
H           1.75016300650554    0.11794150245586   -1.12012821326264
H           0.45039581917127    0.74933568952286   -2.73115776620912
O          -0.88780026684808   -1.96888326406076    2.48127220054535
H          -0.04329623223678   -0.65547520079197    2.62258386967610
H          -1.32436700264886   -1.62274815705316    1.69166146357829
H          -0.20999020578674   -2.61558276717869    2.15338578381004
N           1.13104701401080   -3.30182870967104    1.33140176630683
H           1.37344237870362   -2.41969358374093    0.87669751454507
H           1.03262690076980   -4.00495370839287    0.60997120117315
H           1.91404829883472   -3.56815307768523    1.91493446306490
