    26
        -50.45568707  Gyration_radius:  2.56668931859 Dipole_moment: 1.985
 S           0.92763352931848    0.17316860444842   -0.35538030883775
O           0.60440943163592    1.40747231555166   -1.04664231640238
O          -0.09661964767966   -0.86441872808471   -0.63675616782858
O           2.25455474361940   -0.35081148686687   -0.93971485447488
O           1.06655735799234    0.35818731737018    1.07729885985807
O          -2.96878396587023    1.20011194663613    0.61425677239363
H          -3.20570120708654    0.65598276436048    1.36723436185973
O          -1.14892961424765    1.65900804808004   -2.92993403753391
H          -0.41682410169250    1.68865541950999   -2.26026861961679
H          -0.74882334227484    1.37842344600012   -3.75501527443541
O          -0.69288106958910    2.31365848042711    1.23210623157041
H          -0.38233095622369    2.79972551996794    0.46199142753686
H          -2.13969538711806    1.69403072393318    0.87537035315602
H          -0.03147293856320    1.59665372318974    1.33757086887212
O           1.83804630343383   -2.72795665022548   -0.12262288221216
H           0.90570273165254   -2.52386998511148   -0.27436858531888
H           2.26257809021407   -1.32314504487445   -0.67367356151701
H           1.98294971965559   -2.61895043287324    0.85319767630958
O          -2.27677512659966   -0.07581918211445   -1.46018697812539
H          -1.34531438514503   -0.48231842558194   -1.11132756799051
H          -2.64909484410413    0.44094310578321   -0.64462192732622
H          -1.97849903424674    0.63096441156804   -2.14079532602086
N           2.06130814216502   -1.94225765753202    2.42826914825079
H           1.71280700514543   -1.03433447357252    2.11538728260700
H           2.99258440209832   -1.79936463727696    2.79814834629706
H           1.47261414350708   -2.25373912271682    3.19047708892590
