    26
        -50.45568733  Gyration_radius:  2.56675053449 Dipole_moment: 1.980
 S           0.67231084809689   -0.09848029006208    0.74858789487905
O          -0.55841802774828   -0.61200800125474    1.32087229660814
O           0.71418363368125   -0.38567911265800   -0.70765238174204
O           0.84882095982712    1.32113879259602    0.99199476140993
O           1.87705868927034   -0.82893624336171    1.37412214012034
O          -2.09820069782397    1.93996289816735   -1.56809723599666
H          -2.72637438254251    1.27911568462754   -1.86456633840072
O           1.66356555294992    3.05739827780995   -0.74160994659518
H           1.39291653356978    2.49043245476379    0.02687873813362
H           2.62083108763873    3.01740294644841   -0.78278572188421
O          -1.90948966239838    1.62957467559575    1.01481068226218
H          -2.08197514583384    1.88313227121639   -0.57021653688948
H          -1.54769928611036    0.73275235555284    1.18046922270446
H          -1.21926965520321    2.21781365066644    1.33615893828152
O           0.30835540407392    1.50748728001778   -2.22560502985358
H           0.50139692247566    0.64413003849025   -1.61579387672462
H          -0.68450276267252    1.73170309677226   -2.04007695075073
H           0.86213913137425    2.24044145419769   -1.76933323267988
O           1.53428539657403   -2.91102307418577   -0.05403280510228
H           1.87366149423680   -1.72639085772073    0.91493128530807
H           0.72183839241609   -3.29560278937475    0.36688486778971
H           1.21504585132209   -2.29214040228156   -0.72414460569470
N          -0.77314065800066   -3.44851462072617    1.19577589230386
H          -0.86103663800275   -2.44047915330444    1.33650633522475
H          -0.72653600820252   -3.88019943331429    2.11010514171696
H          -1.61976697296252   -3.77303189862262    0.74581646554224
