    26
        -50.46305571  Gyration_radius:  2.55493564255 Dipole_moment: 5.328
 S           0.05341777579854   -0.09024864298463   -1.16752801616146
O           0.76498556492277    1.18790704331527   -1.06958137571908
O          -1.09034781408805   -0.11703331069594   -0.26227705719641
O          -0.48836806027230   -0.16587849681764   -2.61908353759969
O           0.94666608562324   -1.21822070292762   -0.94919804228255
O           1.19043087048391    0.46541277716823    2.90772052675671
H           1.31611010891974   -0.31491204726066    3.44950125556908
O          -0.24295577761688   -3.56023378736791   -1.29117277943438
H           0.26164109096537   -2.74582374294452   -1.07757685132174
H           0.27821985398301   -4.03005864301056   -1.94438702343159
O           2.59485447419128    0.04286392079647    0.68642197239279
H           1.74889320716250    0.32636321007607    2.10517200322345
H           2.07768064254793   -0.58824921540131    0.14635432183091
H           2.62288209256072    0.83203322567338    0.13814688598234
O          -1.23580070716439    1.11363405383547    2.05181777187407
H          -0.40263820253004    0.83765840645821    2.50309227296748
H          -0.78417943080713    2.23286250761900    1.25074308224691
H          -1.32649990906330    0.50255975424162    1.28635653155657
O          -2.25072690524460   -1.89825352938271   -1.93131406895153
H          -1.69258102525270   -2.68384171182456   -1.74912118113424
H          -2.24861419213541   -1.39255548733244   -1.10490125655656
H          -1.21657865784129   -0.84940844210401   -2.55380930831164
N          -0.33269123708143    2.91147538297357    0.48812079712678
H           0.12766401202596    2.22762255680516   -0.21672962419415
H           0.37213201122505    3.51172588662250    0.90378987318872
H          -1.04359586128657    3.46259902451782    0.01944282756869
