    26
        -50.46305563  Gyration_radius:  2.55503329349 Dipole_moment: 5.328
 S           0.81439113710876    0.83029450682840    0.15032353954473
O          -0.54629496185330    0.72444600407954    0.66566025188848
O           1.63617737650250   -0.29107890091913    0.61606651077270
O           0.83967250933350    0.94599104223297   -1.30007592441443
O           1.45347478509883    2.10704981305546    0.75683011096442
O          -1.10899763712006   -2.78758570289380   -1.04527802141019
H          -1.67524642363824   -2.76243272906619   -1.81793021691258
O          -0.48103313175434    3.06347565321971   -2.18836980124183
H          -0.03000252165314    2.22259436633491   -1.95809050214931
H           0.13957326574938    3.55698782777984   -2.72720935751144
O          -0.73461879181053    3.41280363690043    0.46072920886392
H          -0.77858616117767    3.50116061527143   -0.51496068558746
H          -1.13273119783659    2.55044459332528    0.65187082395353
H           0.71241003218624    2.77789254190440    0.70617812329922
O           1.17378689224694   -1.63121434010575   -1.77816872356690
H           1.00611988153088   -0.66739876145798   -1.79629035233266
H           1.84510988843982   -1.72621234222950   -1.09665667103404
H          -0.24750061378254   -2.39961126260117   -1.33270884761244
O          -1.82266830595968   -1.51344481887533    1.17009767959611
H          -1.55868255404745   -0.59383948404767    0.94191276816608
H          -1.70608474224473   -2.02808741820426    0.33621500891017
H          -0.59393290701624   -1.81223780394043    1.87755623006468
N           0.45521007967314   -1.88205259752910    2.25162195029562
H           0.81734889265666   -2.82468817904490    2.15087777968633
H           0.52370250807617   -1.57134249341752    3.21469287402434
H           0.99940271130512   -1.20191375660918    1.60510623373528
