    26
        -50.45059455  Gyration_radius:  2.46316226832 Dipole_moment: 4.139
 S          -1.36209698943345    0.68292376222811    1.29696356626115
O          -0.63362857925067    1.39780414911274    0.26637416855222
O          -2.09659956272943    1.48380354194548    2.20264141351210
O          -2.25645473539397   -0.36451598776818    0.61294073185706
O          -0.34189928073047   -0.18454194830721    2.08493301169782
O           0.87856930045283   -1.20140093284703   -1.69502701036781
H           1.46326216208146   -1.53372016673373   -2.37666961720521
O          -1.77555077106646    2.12780310890342   -2.04227330506300
H          -2.54576094640243    2.66658530216675   -1.85517891123963
H          -1.27333921888294    2.06168526279982   -1.20776403668391
O          -1.74573049088099   -0.53198717894486   -1.83226038687673
H          -0.79792957451262   -0.76304659591407   -1.91030075049339
H          -2.06313611801082   -0.43555623875363   -0.41255693337411
H          -1.81873933784998    0.40351331518381   -2.12395408273494
O           1.89046345929408    0.85860757273591   -0.55766103833482
H           2.30537052510396    0.55830703987439    0.28439996254104
H           1.32374178285547   -0.37676816442155   -1.30899210148619
H           1.04757081216329    1.26290117717777   -0.29018629627626
O          -0.06334780103758   -2.24279290037904    0.57573705137057
H          -0.18063418766768   -1.01057940241224    1.53316116056818
H          -0.97075423473458   -2.48218956021777    0.36732983398110
H           0.35181692528858   -1.95760437550119   -0.26863998521617
N           2.66351572410081   -0.02289239169929    1.90374842034626
H           3.29605474884132    0.54673566147858    2.45124758851182
H           2.96479093303803   -0.98619158944567    1.98089549073056
H           1.74044545536408    0.04311755973799    2.32109206542530
