    26
        -50.46305550  Gyration_radius:  2.55467740562 Dipole_moment: 5.322
 S          -0.40107894937995    0.34886639274373    1.04416531814261
O          -1.52158572138542   -0.54192504822135    0.72669084597371
O          -0.57223096850910    1.66078291116493    0.43810831148256
O          -0.41274656047531    0.51426458664499    2.58643301909470
O           0.86920121689185   -0.26351166085704    0.67048306368120
O          -0.21140893162662   -0.57071538151771   -3.11624797318813
H           0.20872416650521    0.06195325887606   -3.70068494721755
O           1.33344173452089    3.36863318922432    1.12285889492222
H           0.62756752858080    2.78991218369577    0.76178552289406
H           0.88612573806558    4.13231354190167    1.49128730537624
O          -1.94651031953609    0.82536199203964   -1.65863968981544
H          -1.42090339824101    1.30518609967108   -0.98712106271204
H          -0.88658672154594   -0.05860924460243   -2.60901758330221
H          -2.50120091214048    0.24390945407670   -1.13094552752953
O           2.04899368097939    1.23523895393826    2.58538699889938
H           0.51564486601522    0.82958160349307    2.78757638695392
H           2.10662257471040    0.60717154922881    1.84989024691780
H           1.99401237319008    2.11761792953891    2.16080208820870
O           1.23626212087797   -1.91008570017675   -1.34096260524622
H           1.32022038527867   -1.23590783902116   -0.62976674837182
H           0.09658330396567   -2.57064752081904   -0.73669448517959
H           0.81661362835373   -1.43480533796578   -2.09708806267111
N          -0.83616366068870   -2.84291854402204   -0.18799491071953
H          -0.64698816822353   -3.51411392620358    0.54855076658537
H          -1.54444076836844   -3.19585443955824   -0.82337206123713
H          -1.15816823784007   -1.90169899327910    0.24451689806865
