    26
        -50.46305566  Gyration_radius:  2.55482706517 Dipole_moment: 5.321
 S           0.67661287469320    0.68324525434948    0.67301780770213
O           1.98698206802841    1.36492926974777    1.14680468866417
O           0.31644273319047   -0.27195131991575    1.72538365799821
O          -0.34333365431175    1.70822842732973    0.50861315658579
O           0.96145444832615   -0.00868393524418   -0.57939276457481
O          -2.64079522742155   -1.60344107612371   -0.73916654622180
H          -3.21212078505160   -1.19614289161204   -1.39182984994244
O           0.33530169356705    3.56545940470043   -1.25399457351532
H           0.26859108635113    4.40463694326586   -0.79529416301902
H          -0.02883497270711    2.89173370891076   -0.63998925833235
O          -2.38171723633382    0.18351553825393    1.21699955679223
H          -2.58385484540918   -0.95834747579463    0.00626147582127
H          -1.91438905726006   -0.18730618879834    1.97080447813294
H          -1.76847914300431    0.87120241617142    0.88783200287005
O           2.55974889891474    2.06414403700199   -1.25380639686472
H           2.13024004697626    1.22352949586809   -1.47198280006403
H           1.87838296234362    2.74839756765486   -1.42541508704333
H           2.36783383631611    1.73797404718670    0.29965001417199
O          -0.14881869837251   -2.24857507132706   -1.37996853489792
H           0.21865300881630   -2.66805101066328   -0.04338236499659
H          -1.11337057060934   -2.06501555833401   -1.27926433576285
H           0.28679208713515   -1.36965387956999   -1.30779634732813
N           0.48221430871639   -2.74225045514256    1.03889844694054
H          -0.20108947378562   -3.29618127257427    1.54497916494761
H           0.45224835468558   -1.71204279805273    1.37710622068364
H           1.41530526621979   -3.11935318732295    1.16493233128812
