    26
        -50.46305552  Gyration_radius:  2.55523928841 Dipole_moment: 5.333
 S          -0.60708092223643    0.84441541255733   -0.53964355199724
O          -1.21794590590837    1.11796619552984    0.75244561563584
O          -1.25687051257366   -0.28259532805546   -1.21575791657170
O          -0.82648133895808    2.07530161825892   -1.45800241709243
O           0.83044327002495    0.62216396301902   -0.42745493640590
O           0.34196580488269   -2.70822473000241    1.62602928423312
H           0.54379740993121   -2.62570966178229    2.55910315784306
O          -0.20604690696641    3.25652844432550    1.94423784909964
H          -0.94883226336778    3.83271084903171    2.13218424851592
H          -0.59201211637552    2.41705768616431    1.61287260006582
O           2.00629441994548   -1.71199860011989   -0.18402059089784
H           1.75127536397183   -0.76236729479316   -0.15770924007042
H           1.51424494335271   -2.12983691409710    0.56252106098153
H           1.15637663984813   -2.02662387593755   -1.31428831824909
O          -1.93253331681149   -1.37661365407128    1.25242206828223
H          -1.70675242930144   -0.42464988870752    1.26096707487357
H          -2.27221643512902   -1.51552187535912    0.36386889250698
H          -0.52478154450358   -2.25234746385011    1.49869262187808
O           1.14634680993257    3.30559542533665   -0.37390099213876
H           1.51174531552309    2.41046738534228   -0.31156830745696
H          -0.11863352341946    2.71409726422318   -1.15373020611714
H           0.79134239344188    3.49692368378064    0.51995582485123
N           0.35209126141759   -2.08677070784538   -2.08585521127958
H          -0.09795073246582   -2.99627974892351   -2.07502393908444
H           0.71225832771919   -1.87449391365544   -3.00994190927587
H          -0.35004402196590   -1.31919429041986   -1.77840277211847
