    26
        -50.45059455  Gyration_radius:  2.46316436074 Dipole_moment: 4.139
 S          -0.42494638452793   -1.51872752681354    1.23151983108958
O          -1.27694157763471   -0.29468608935011    1.66743619739331
O          -0.96196036580751   -2.69416972772854    1.80693640202128
O          -0.33751969659495   -1.50520163984190   -0.21623790550685
O           0.96727518090460   -1.19517724777577    1.79891298395876
O           1.18128763905452    1.65976747631172   -0.96856847128863
H           1.46996537955948    2.35536128119196   -1.55996606513475
O           1.75562169381676   -2.53607707504594   -1.52878990326153
H           1.86358366827082   -3.45424347108792   -1.27614839336612
H           0.87680796581581   -2.26036199785647   -1.20527834486013
O          -0.97678631346166    0.57847385270380   -1.82571590314180
H          -1.72710082078907    0.97977365075693   -1.32834223432758
H           0.34560398475180    1.25943477855094   -1.37915857054432
H          -0.83827414720942   -0.28982784314344   -1.41058662359330
O           2.54029741291077   -0.48417660313921   -0.01436633458889
H           2.13978588360907    0.29553873160577   -0.44961129174548
H           1.63919522784611   -0.90942284297883    1.04996081530447
H           2.46074915507385   -1.22160795871806   -0.65891376213444
O           0.41805508438997    1.63212268779892    1.58970815568892
H          -0.66472313438556    0.50376296148422    1.64585171654169
H           1.17609852468512    1.27197983439632    2.05853580107716
H           0.70150376166949    1.76188059323612    0.65724540730257
N          -2.91758412011710    1.47933788706352   -0.13605910728723
H          -2.72217618271646    0.80632464027838    0.59841657045671
H          -3.88767306078723    1.37588221923119   -0.40542718169136
H          -2.80014478832461    2.40403943887155    0.25864619163643
