    26
        -50.46305561  Gyration_radius:  2.55452666777 Dipole_moment: 5.317
 S           0.68308969096412    0.48086080879966   -0.82170487779517
O           1.36998255364689    1.62033342972451   -1.61926118546021
O          -0.00928191090512    1.08402898455548    0.31181871490972
O          -0.27250184898007   -0.13781852384627   -1.74581118750652
O           1.70411138633813   -0.46446854812584   -0.39554921411728
O          -1.60701639858339   -2.36628931883424    1.37993289795721
H          -1.20583296166777   -2.76013534334254    2.15596008979912
O           3.56098934013185    0.64544681604024    1.13281504715276
H           4.40020182320760    0.45919357724701    0.70852646230388
H           2.88672089713079    0.13562897048341    0.63382728211446
O          -2.24397801392454    0.20928315494582    1.37629621244022
H          -2.66598882510971    0.22678568631995   -0.00978472755889
H          -2.06124349573547   -0.74965450247022    1.52119210525164
H          -1.36552381352800    0.61239233677010    1.19402463723704
O           2.06710845801283    2.79747835498934    0.55041107766675
H           1.74312936906452    2.20778094688506   -0.89974429253382
H           1.22469718016593    2.44200528528318    0.87080728584208
H           2.74878129185741    2.18258934560363    0.89538539662938
O           0.18411567500634   -2.61880756229937   -0.57267677222432
H           0.87076138389201   -1.94199464444833   -0.40619509673115
H          -0.96031364166836   -2.50280790227192    0.64610372805424
H          -0.18594473189363   -2.35439360559241   -1.41971694371883
N          -2.74115167894499    0.20677309405458   -1.12309878990575
H          -1.71160803434654    0.08741209147614   -1.44322324256087
H          -3.11473068539501    1.07881814201335   -1.48189060851382
H          -3.29857299869326   -0.58044108405667   -1.43844398870465
