    26
        -50.46305557  Gyration_radius:  2.55423608833 Dipole_moment: 5.313
 S          -1.02850158105535    0.24599267194749    0.50392479721638
O          -0.08371450443858    1.10873318138748   -0.19708286348985
O          -2.18251311129149    1.13733201330768    1.03284580064640
O          -1.59367204390135   -0.76811166836947   -0.37346892523511
O          -0.40637200746337   -0.35217629168357    1.68910070082076
O           2.44648037641730   -1.86853901410651   -0.77529989807964
H           2.46271942087360   -2.19749458951317   -1.67517731368332
O          -2.88777494202967    0.26442313529774   -2.44124178332269
H          -2.37499770434724   -0.20637034347456   -1.74917445286121
H          -3.77041894374791   -0.10882859717346   -2.41540671623426
O          -2.19804379835672    2.50606818134243   -1.13648925759909
H          -1.24507689244630    2.33346197509359   -1.10930110233718
H          -2.55524519829293    1.85389314259379   -1.77590839633622
H          -2.35452113144244    1.76247925185377    0.27033051370507
O           2.51290689292630    0.74378601551269   -0.31718760679806
H           2.59274691903497   -0.19970383187725   -0.59556903730294
H           1.57203803082962    0.97983384119025   -0.48026811749190
H           2.35106585454084    0.62027921686801    1.11689216727076
O           0.12656373831683   -2.67361025673677    0.25126199599277
H           1.60678758047329   -2.20813258416947   -0.38160870982676
H           0.07895487364706   -2.48341898664264    1.19242704715006
H          -0.55944087255886   -2.09006431045421   -0.13123490077392
N           1.98962709632766    0.44861927847937    2.15900662175909
H           0.96240424852556    0.12977167634953    2.02021443341845
H           2.01423342712760    1.30490743858447    2.70209521435828
H           2.52376429233835   -0.28313056556851    2.61631976900526
