    26
        -50.46305549  Gyration_radius:  2.55530876281 Dipole_moment: 5.331
 S           0.73571464354689   -0.53653598520245   -0.73746308744194
O           1.67579638460956    0.49681633728948   -0.29257783809773
O          -0.11914572302988   -0.05496646203873   -1.81217240789550
O           1.60706036609937   -1.69740680641103   -1.28488496114453
O          -0.03848492801669   -1.05169527033255    0.38651529136984
O          -1.51244925027669    2.50134799074789    1.24805870267769
H          -2.43193002513794    2.60805288746320    1.00032683115680
O          -1.71509380424641   -1.93319977003433   -2.78247871464091
H          -1.54533268192748   -1.96508196067648   -3.72543734641642
H          -1.21382500154883   -1.16028738679283   -2.44354483417849
O          -0.73201254785219    0.30902768098422    2.52156899516275
H          -1.14409205003611    1.12110011857579    2.14091682721897
H          -0.66533101741413   -0.31976612343901    1.76810959134270
H           0.67541063853322    0.65224605577740    2.50879784100557
O          -0.32194383368450   -3.36193402601478   -0.98807491429285
H           0.98265319972603   -2.47939223508453   -1.26311974305588
H          -0.52225210283140   -2.80687213674720   -0.21964737735729
H          -0.94526095254555   -3.06449303412212   -1.68442892489753
O          -0.14275433153409    2.47025913068935   -1.03461197506860
H          -0.28566506631091    1.59009550322832   -1.43745483176391
H          -1.00227648740563    2.53617901648421    0.40332530230118
H           0.80460221569380    2.48897157255013   -0.87263228494248
N           1.73757561245615    0.87429360142670    2.24772540363064
H           2.37256701608528    0.23994915687277    2.72008199945005
H           1.97171858618465    1.83948159364433    2.45612663499405
H           1.77475114056617    0.70381056144194    1.17697581094602
