    26
        -50.46305542  Gyration_radius:  2.5549232765 Dipole_moment: 5.321
 S           0.73060502559119   -0.81880557080625   -0.40853126548724
O          -0.05369736873323   -1.77678872729907    0.35622217694494
O          -0.11412437266773    0.14159655660524   -1.11025800810071
O           1.71208497228065   -0.12965398092967    0.43492910244714
O           1.55267656827744   -1.59340823599973   -1.47194199033132
O          -1.39867677702530    1.73368237076088    2.26691093711398
H          -2.29764786979952    1.49551630158266    2.49799193733771
O          -1.71941972293514   -3.18137291822275   -1.15033184521596
H          -1.18697945335147   -2.66559473431464   -0.50685723169600
H          -1.51666849109356   -4.10311375361984   -0.98196584207215
O          -0.47947474017339   -1.72341948383970   -3.03184010650792
H           0.88364250460376   -1.76273870840497   -2.19690378584270
H          -1.05818580543996   -2.34912446409391   -2.54662681845719
H          -0.67495488735384   -0.85462985814805   -2.65015328241168
O          -0.82047619589871    2.50273936540681   -0.20568503007763
H           0.60530085742436    2.60654952651158    0.03021527455475
H          -0.76014958654433    1.63056334543241   -0.65625702754373
H          -1.16225864505913    2.30165561177756    0.69805957151157
O           0.05678160063266   -0.46250610480402    2.64621944898190
H          -0.12917166604030   -1.05440765631014    1.88966964267536
H           0.99508390277830   -0.27435790934692    2.55417539668678
H          -0.85351436885877    0.93130358719378    2.45216019800876
N           1.68961181961781    2.43124850085204    0.22826199990326
H           2.26198860807760    2.76443436479288   -0.53996635620769
H           1.76149753240939    1.35127647032535    0.29987961363486
H           1.97612654928243    2.85935611485253    1.10262331014214
