    26
        -50.45059467  Gyration_radius:  2.46312802883 Dipole_moment: 4.140
 S          -0.11954372569395    1.95530250958310    0.40856435714581
O          -0.93464411294981    1.98088498172112   -0.89523141713700
O          -1.05451818991916    1.20163762594146    1.39445061069794
O           1.05390379707203    1.13071278948058    0.19213641449065
O           0.12418056326369    3.26053508125439    0.89657273360823
O          -0.26735031057863   -1.93716806975490   -1.12410124586381
H          -0.20209358568982   -2.84965087739946   -1.40700949178425
O           2.45405307844339    1.21122846159091   -2.08806778282351
H           2.14061921829236    1.17989093695094   -1.16409244792725
H           2.74343374135860    2.11083475714662   -2.24768009003093
O          -2.26496012377599   -0.46687359585162   -0.13612905467437
H          -2.54326133487021    0.08114661442548   -0.87528787943420
H          -1.60377535436368   -1.10178912163800   -0.49167408221208
H          -1.55388190704834    0.51773285864103    0.85063066021911
O          -0.02607217361187    0.34910242851981   -2.56247435141329
H          -0.55757149087486    1.31317144959215   -1.60666452517023
H           0.92336226795060    0.59932196894320   -2.60183462495195
H          -0.05255602122221   -0.53352512766612   -2.14048522544693
O           1.29997905430974   -1.48564285969289    0.85105252245341
H           0.39397440041050   -1.82181735121058   -0.36480925132472
H           1.42324068152512   -0.53640375744125    0.68001973275373
H           0.75877950697533   -1.52611750993809    1.67376577791380
N          -0.35612854260026   -1.25071888702531    3.00403519845183
H          -1.20856671429835   -1.79663397564859    2.99816752532364
H          -0.61034595702512   -0.28489760611288    2.82196469696298
H           0.03974322491724   -1.30026370440957    3.93418121017706
