    26
        -50.46305564  Gyration_radius:  2.55498855078 Dipole_moment: 5.326
 S          -0.51728430418237    0.55807288086224    0.89122691943188
O          -0.72115031782520    0.67012521554856   -0.54896590280673
O          -0.87737632370060   -0.76036666484228    1.39102522901799
O           0.85878201387511    0.91379031820116    1.25135356067880
O          -1.42359747288974    1.61047043788875    1.58220569994334
O           2.11247963752459   -1.96668827770153   -1.32554298172738
H           1.78661873203160   -2.82449365684570   -1.60184473838940
O          -3.40986978398689   -1.38433545290950    0.92830583449122
H          -3.78961644536767   -1.60370322652449    1.78073535403170
H          -2.44723357328030   -1.26985632999310    1.08246240798306
O           1.55783586767552   -1.77916997633365    1.27100264462131
H           0.59959461847626   -1.59307562721663    1.33831914825979
H           1.94704967011319   -1.91842721927776   -0.35306676051093
H           1.96257350340849   -0.99651171762492    1.65557453711478
O           1.10268230133034    0.24496804741344   -2.38862675639686
H           1.86631645380222    1.14045250307402   -1.54336700375028
H           1.47142709767854   -0.63490800505374   -2.13639341571560
H           0.27391343033914    0.33408497430696   -1.86641005461408
O          -3.34017167315736    1.11422139477993   -0.04881912771061
H          -3.60925460917254    0.21435918346037    0.23360154250974
H          -2.27891422776233    1.54651609817893    1.06625681633545
H          -2.61160403455701    0.97327872521035   -0.67175619721847
N           2.30275906478019    1.73762449740145   -0.70764715509234
H           2.20117486342354    2.73291659397829   -0.87456659794752
H           3.27646250710844    1.49581586633144   -0.55488118522871
H           1.70640301427242    1.44483941766891    0.14981818268336
