    26
        -50.46305568  Gyration_radius:  2.55455086239 Dipole_moment: 5.320
 S          -0.48650761639151    0.69703944506872    0.80754221145266
O          -1.08802009468953   -0.55134996422169    1.28645746134949
O          -0.52566798900797    1.67715627535277    2.00919004976170
O           0.91142050161868    0.49211159831569    0.44405432453580
O          -1.25380677772647    1.27592289950476   -0.28520945771054
O          -0.01582067464921   -2.23630748215360   -2.25463897616863
H           0.05531826769753   -1.93043251267182   -3.15998127860963
O          -0.31332265709491    3.62450357675807   -1.07020745762801
H          -0.68929646033610    2.73490000548138   -0.89453964403792
H          -1.04762754302240    4.23786892902656   -1.01046912816295
O           1.33918965242506    3.10612923155409    0.97985492335237
H           0.87610638459195    3.50857372299753    0.21471238858107
H           0.16434040726723    2.36075235090278    1.76722803523968
H           1.65329469640504    2.24768004079057    0.65872123807278
O           1.92908325531948   -1.72584341838800   -0.52353733645258
H           1.23125287067111   -2.29532321465409    0.61121797739073
H           1.31890138330191   -1.94443559709418   -1.26776675570506
H           1.71802034368809   -0.79535928716939   -0.28457541989396
O          -2.15399492088780   -1.01711957299568   -1.24110769520182
H          -1.88623535228183   -0.09346047493598   -1.06075512874482
H          -0.83564298828545   -1.81919006264760   -1.89518380180600
H          -2.36877922060289   -1.35952912644726   -0.36885285461339
N           0.54067921335501   -2.53124294253935    1.45570513916849
H          -0.16086583786873   -1.70396675959637    1.44643731100449
H           1.03616898418187   -2.55313236710898    2.34046291307811
H           0.05181217235449   -3.40594531329286    1.29524094169546
