    26
        -50.46305560  Gyration_radius:  2.55467310756 Dipole_moment: 5.320
 S          -0.51393621889115   -0.81642585967990    0.66539795412309
O           0.85846168631138   -1.08871544998670    1.10383968547663
O          -0.82431121532837   -1.50390045364269   -0.57915843402788
O          -1.43603040193528   -1.37670571465082    1.77992026156454
O          -0.75146826305715    0.61974537864591    0.56945462298130
O           2.13861945238325    1.08501092534022   -2.08194865673457
H           1.83061505532870    1.22805144384372   -2.97803498685851
O          -3.34694693539227   -1.19469082577799   -1.32567168903034
H          -2.38497981799007   -1.30761911373955   -1.16628695102031
H          -3.70233842067793   -2.07853398474550   -1.43304905704487
O          -3.37087136179457    0.12229422112802    1.01256211010242
H          -3.60776002202764   -0.28908986551923    0.15434058391208
H          -2.29964328138755   -0.89559659972552    1.62283937223648
H          -2.65162874377868    0.73735199332782    0.80490229192634
O           1.04420829607451    2.42506160701687   -0.07002917100579
H           0.22428532116188    1.90060983033190    0.07165500079888
H           1.79882795601610    1.73451235809485    0.95653140102293
H           1.44319555081139    2.05970379106851   -0.89533734828162
O           1.63735023093377   -1.47206705020795   -1.53940222628543
H           1.99430798205646    0.12513305370132   -1.89956376460171
H           2.02661198806699   -1.73103083151014   -0.69931096057705
H           0.67564709540676   -1.53522950546543   -1.37066542004571
N           2.23462352645099    1.00348042090298    1.67830688161903
H           3.21835585996409    0.84301282261217    1.48751656792267
H           1.66595639138357    0.09814640676838    1.49479738036042
H           2.09884828998780    1.30749099177675    2.63639453147620
