    26
        -50.46305575  Gyration_radius:  2.55455576141 Dipole_moment: 5.321
 S          -0.65113999324726    0.97417109098339   -0.02604637053971
O          -1.54389420547861    0.15931925707828   -0.85591521968028
O          -0.14207378344450    0.20025574469089    1.10103714657912
O           0.42326633496526    1.56101020388797   -0.81283387837803
O          -1.52711402290048    2.12110277605808    0.54267432561512
O           1.52023222717765   -2.47781966784866   -1.27584954332964
H           2.47414987561408   -2.40826284608992   -1.33482575753886
O           1.96337422726162    3.18929892314838    0.59915136358112
H           1.49239544125876    2.55532256652455    0.01621859895376
H           1.95881755602764    4.02814276580187    0.13508223328369
O           0.13836901574147    2.52446256350282    2.45142876751130
H           0.90134082785115    2.90536649752516    1.96707984993138
H          -0.99999238920261    2.43903414006977    1.33193251838256
H           0.25641721189656    1.56485941406858    2.38866619329854
O           0.55529693172054   -0.38039940368442   -2.60048785011879
H           1.16399464896200   -1.72521485140281   -1.80696807756702
H          -0.40016487558429   -0.43577031049801   -2.69156619950499
H           0.68110897257903    0.39535967809343   -2.01756726223737
O           0.32682945976442   -2.38250795916961    1.09187048717239
H           0.32232045346914   -1.41209716387481    1.25244437792050
H          -1.01643051709000   -2.41393022287507    0.54999269314315
H           0.87582225235690   -2.50590226652653    0.28109655574234
N          -1.99145606614646   -2.20330792997193    0.04927758850289
H          -1.86605862682304   -1.19606655416031   -0.33315521155695
H          -2.75823647505012   -2.22702069947040    0.71280754064803
H          -2.15717449167182   -2.84940575587682   -0.71554488984030
