    26
        -50.46305564  Gyration_radius:  2.55464151151 Dipole_moment: 5.318
 S           1.08130382233442   -0.08921464115719    0.44451405783649
O           1.10316277293217    1.36585867346620    0.44720517823794
O           2.54080402713983   -0.60325110880159    0.55373390730713
O           0.37892186179186   -0.61999407857377    1.61703067809010
O           0.51053397675604   -0.62412379909589   -0.78687701394032
O          -3.05860145645713    0.85540997720467    0.02574283932130
H          -3.29260983626933    1.62379067305387   -0.49686944444367
O           2.51411645047806    2.37721310578284   -1.55365871587870
H           1.91842266950830    2.09711384785015   -0.82550451141301
H           3.16789669764696    2.95289264091809   -1.15335828949247
O          -1.18616530511374    1.67725447508026    1.72981867996739
H          -2.39805223410699    1.17321935547565    0.68751671114515
H          -0.97983859125767    0.99502364665104    2.37493965796883
H          -0.35817319783403    1.75746029470081    1.21459800139744
O           2.91635957651750   -0.24518387691354   -1.95826460391458
H           2.91802712980364    0.73377416046784   -2.01740899617722
H           2.88274376639454   -0.51621202319399   -0.38300965617442
H           1.98229898931162   -0.49725119383506   -2.01016735584598
O          -2.00601145604749   -1.27917420839965   -1.14731186028222
H          -2.49112061790190   -0.47922435043018   -0.83325971221442
H          -1.07049453794404   -0.99043901034903   -1.24112201297063
H          -1.77964664709470   -1.99556065688293    0.09181737458118
N          -1.42904318028038   -2.36598421113901    1.08433345557475
H          -1.05386867251493   -3.30573739192414    1.01435526747946
H          -2.17290481814779   -2.32571785187600    1.77349980068652
H          -0.63806117970033   -1.67194243806185    1.34770657312207
