    26
        -50.46305562  Gyration_radius:  2.55485519752 Dipole_moment: 5.327
 S          -0.14835460461944   -0.16628634781639   -1.14983145241778
O          -1.02509558886078   -1.27112274690444   -0.79181210937134
O           0.27913585615571   -0.33760948686532   -2.63110264680912
O          -0.84677933600390    1.12085320385221   -1.07882429360227
O           1.06212691100480   -0.14436516580510   -0.33594655315385
O          -0.95167222380327    0.66169201356008    2.95657304612679
H          -1.03170490988332   -0.08186389800691    3.55568349241888
O           0.12980833583210   -3.63823976896528   -1.07482444208998
H          -0.44199458824276   -4.14554574640387   -1.65335077249057
H          -0.35508268034128   -2.80845693496306   -0.87523675350089
O           2.08601704284859   -2.03508265971894   -1.97298713507825
H           1.54187439460837   -2.80348402245413   -1.69873662114876
H           1.00918828406997   -1.02046313648803   -2.57875855300995
H           2.14892539776869   -1.47856613909357   -1.18236361469550
O          -2.53186102860782    0.10314413827241    0.88854708776949
H          -1.57326500450403    0.47368160850819    2.21251266676219
H          -2.60399781882658    0.85601675101026    0.29513581717567
H          -2.06145875347101   -0.56432562640489    0.34953961912573
O           1.39893926216359    1.23829124721216    1.86974739578156
H           0.60397649983554    0.99900171085950    2.40338858357688
H           1.42611389920398    0.57687935817154    1.14222885393382
H           0.88718909063631    2.30548342804516    1.03407459261731
N           0.37772152601479    2.93522839727610    0.26625260370578
H          -0.13997967206241    2.20955335690383   -0.35184816215027
H           1.04999901096133    3.44807419815160   -0.29390968936030
H          -0.28976929193868    3.56751227809067    0.69584901987156
