    26
        -50.44722216  Gyration_radius:  2.48009600466 Dipole_moment: 5.453
 S           0.75126009417183    1.46732493068373    1.15231840392972
O           0.78545804016911    0.10076914095175    1.90329350599522
O           1.74828012429896    2.30523592529131    1.70550876375069
O           0.88325925439028    1.18386431664733   -0.26591890870022
O          -0.65290330162307    2.00813922256235    1.41522810471954
O          -1.70999904858500   -1.16727071759725   -1.10292643858050
H          -2.17563449485534   -1.57166897270310   -1.83565450318082
O          -0.33217193797806    2.67312967675457   -2.13157302354196
H          -0.08131159654626    3.58980099369388   -2.00819637520902
H           0.27376356802347    2.14307908509870   -1.57947822578522
O          -2.13379737307942    1.48213883312978   -0.54322276873671
H          -1.66140062126012    1.97106913618851   -1.25086217288905
H          -2.04733852197817    0.53553503185760   -0.76878959328426
H          -1.30731930544363    1.77561444800891    0.64031598686137
O           0.84205397943247   -1.23677337072154   -1.45341746054511
H           0.99155140543374   -0.31292089705757   -1.18583300668991
H           1.31399952441089   -1.76539579424763   -0.77550850839476
H          -0.72699359542583   -1.22954214331278   -1.31335474665717
O          -1.38736938516429   -1.24650187919275    1.55021490071711
H          -1.23214456267103   -2.16271740273928    1.78793028695539
H          -0.08971490824286   -0.36823363758666    1.77933573580212
H          -1.63122250401007   -1.23890129812783    0.60185295930206
N           2.23300062762993   -2.24288393380423    0.69541323725048
H           3.20722550839496   -2.11748471414759    0.44844030849335
H           2.16366291992580   -3.10182840109439    1.22714547750040
H           1.97580609057916   -1.47357756853229    1.30773806091790
