    26
        -50.44722211  Gyration_radius:  2.48008074503 Dipole_moment: 5.453
 S           1.06535930717076    0.87214697069829    1.46604881542130
O           1.28241864636908    1.55896125771892    2.68396699235752
O           0.80578098826332   -0.63144713913493    1.78915543375305
O          -0.05442310715077    1.34199799904683    0.66953390867904
O           2.31773911728663    0.86017554575323    0.59159018798052
O          -0.32892599780383   -0.87705083766190   -2.15075345215475
H          -0.73689940647174   -0.98265102092260   -3.01079866534714
O           0.24113312405488    3.19230097222535   -1.24490441651841
H          -0.03400712794231    2.62959953158273   -0.49619836974095
H           0.65490440440554    3.96847463574686   -0.86442028604286
O          -2.04701223541755   -0.14444072812994   -0.37532088685035
H          -1.05694187406951   -0.58891556117544   -1.51715291840039
H          -2.16526788178969   -0.79868677988397    0.34559850408906
H          -1.48034905194904    0.54418670044775    0.01473442902230
O           1.65258188686265    0.98848869432470   -1.82635755402917
H           0.96555772623109    0.31827252261547   -2.00867833681040
H           1.19086637590941    1.85439179277351   -1.83076809577656
H           2.08102102048396    0.87355101744713   -0.42159670887724
O           1.12224667294134   -2.13095029761940   -0.28749380663532
H           0.70531379017523   -2.98021452801796   -0.12961349259474
H           0.66609165087666   -1.73170950214763   -1.05652008105633
H           0.98322399526832   -1.18201784517518    0.97265676039092
N          -2.01137208102955   -1.67872510103860    1.90702376861075
H          -2.08522019929650   -2.67442502797713    2.07573888109508
H          -2.65892910585915   -1.21656236703089    2.53385887890508
H          -1.07489063752212   -1.38475090446531    2.17067051053279
