    26
        -50.44722213  Gyration_radius:  2.48008988045 Dipole_moment: 5.452
 S           1.60009372699579    0.97676892547548    0.72854695758135
O           2.19852055908814    1.08412568497258   -0.67275043466810
O           0.19357621715308    1.33255615720669    0.66290665525500
O           1.67828954954036   -0.54391970264152    1.06621156334082
O           2.36794188858715    1.68548941343287    1.68264042501670
O          -1.33812579527755   -0.91180996780450   -1.69735103913141
H          -2.12772387069274   -1.05940530643519   -2.21885771964452
O          -0.72309098096759    3.19669636166806   -1.02842447542092
H          -0.51302080805497    2.61218509595574   -0.27533797882263
H          -0.23837252246243    4.01083592563646   -0.88464462351317
O          -1.91597753607070   -0.34484457882378    0.74911493351416
H          -1.58029046320633   -1.00532635942011    1.39162003249695
H          -1.28954413322051    0.39710118234410    0.81654088275374
H          -1.64366443346357   -0.69392763319391   -0.76266487503437
O           0.35005436039994    1.13951487705079   -2.37137911787532
H          -0.27010516179820    0.40476522635990   -2.19829249003241
H          -0.11593252042404    1.95611775224307   -2.09034813980613
H           1.46281293375417    1.07130694900395   -1.40854201905358
O           0.97724744586398   -2.01218671192473   -0.93721644569934
H           1.44414867683330   -1.07718054925205    0.25254183876653
H           0.77954650616053   -2.89745406600657   -0.62526627125982
H           0.15238960629067   -1.66171705457436   -1.33182870613213
N          -0.55236470096631   -1.86139756638405    2.59437512037485
H          -0.44137127045973   -2.85901180668307    2.72768910846869
H          -0.80849144627676   -1.46293945206202    3.48961980213055
H           0.35345418267251   -1.47634278614589    2.34109700639377
