    26
        -50.44722209  Gyration_radius:  2.48006780246 Dipole_moment: 5.453
 S           1.21545416047259    1.47322735584459   -0.63082573422632
O          -0.23010725754615    1.38899410221822   -0.51992679846571
O           1.75058303794503    2.78170067592496   -0.69084350474699
O           1.81860577145190    0.75213173391395    0.61367003080063
O           1.66627256432365    0.62202060352175   -1.81636027085065
O          -1.04328269056113   -2.09643969261793   -0.13920634321856
H          -1.76403251143912   -2.72663394943918   -0.16540868741688
O          -1.81040714997096    1.17424184994019   -2.67232514208716
H          -1.37562337302456    1.39129914601555   -1.82568865216913
H          -1.62093483136246    1.89945616052269   -3.26947979462889
O          -1.64532901333546   -0.03301645774051    1.28209032700739
H          -1.30208107372617    0.61580077527730    0.64281945979507
H          -1.35354237623428   -1.32342738876657    0.42706185997415
H          -1.07293543277665    0.07705846880856    2.07075932763497
O           1.54488827452424   -1.81015320021358    0.46834620784862
H           1.67386357108004   -2.19078384925909    1.33921539597655
H           0.63012140729529   -2.03031225943375    0.19713843003332
H           1.73384085645721   -0.23811547091453    0.49734912764937
O          -0.18192149646245   -0.94599240929721   -2.47286664909549
H          -0.87954837966723   -0.29797781645935   -2.71022305369218
H           0.93926963762818   -0.06873316898288   -2.09396374710282
H          -0.50859867889557   -1.41132969782462   -1.67839721065054
N           0.24652116503368    0.60489217740408    3.17368725992904
H           0.69341376833044    0.07818355349111    3.91410148124205
H          -0.07962456273129    1.47545057420704    3.57571340546854
H           0.95513462319213    0.83845816386689    2.48356328499125
