    26
        -50.45059450  Gyration_radius:  2.46319424954 Dipole_moment: 4.137
 S           1.21519706057576    1.03743461789564    1.20434023861620
O           1.18153942747725    0.98491720348436   -0.24477321009113
O          -0.10790070486396    1.65049846885412    1.69270243443774
O           1.14509524561405   -0.42147027602724    1.73433300434976
O           2.33360466884658    1.69090458435026    1.77294072189518
O          -1.91236273845465   -0.68017992535685   -0.98466006233470
H          -2.54329958530267   -1.10098926332034   -1.56927883475664
O           0.17092024964725    2.97553385824181   -1.72220399746204
H           0.62955458684077    3.78949615728725   -1.50857116098324
H           0.69666322234619    2.25027810912719   -1.33414118460388
O          -1.73597696136755    1.90717219285208   -0.19185985695586
H          -1.20917744804741    2.40590080652479   -0.85467366111792
H          -1.87229737155899    1.01662856118977   -0.57415053628020
H          -0.79329009896661    1.77612249209522    0.91265441778692
O           0.48684621972488   -1.16548503360434   -1.73940781478867
H           0.82964265755921   -1.90285314767780   -1.18247688004943
H          -0.99199163281717   -0.88815846197394   -1.35461650079182
H           0.88601121566786   -0.36251592172723   -1.36340179250119
O          -1.36481616723078   -0.94817207593312    1.61461884536381
H          -1.64067879846489   -0.94283318023119    0.67092878720514
H           0.17660309568886   -0.69304262942232    1.70108269302020
H          -1.76736730995843   -0.17597055673135    2.02179347361641
N           1.44432672202931   -2.93684500132526    0.09870876076883
H           0.78356267092009   -3.58046872394456    0.51563518251149
H           1.66940755667366   -2.23484946692992    0.79666707161791
H           2.29018422741962   -3.45105338770033   -0.11219013847632
