    26
        -50.44722216  Gyration_radius:  2.4800894071 Dipole_moment: 5.453
 S           1.66302091068102    1.12972724926952    0.05916531561764
O           1.57007798738366    1.38235774576736   -1.44442859901329
O           0.34609409279945    1.31046219769875    0.64412861999678
O           2.01779483015059   -0.38463554731142    0.17498575381625
O           2.70599085014829    1.87879353195512    0.65352679773054
O          -1.86201300841157   -0.98298944502982   -1.03426774949979
H          -2.78396084940969   -1.20075628223485   -1.17523687390822
O          -1.38484674344801    3.13018149088623   -0.28763876064449
H          -0.81292491276413    2.53861979090994    0.23758985515425
H          -0.96143480252074    3.98990896102267   -0.28632038439284
O          -0.83464213111884    1.29405353156948   -2.16190058372403
H           0.58978350795924    1.31568450878859   -1.78705634909237
H          -1.24653514371673    0.48004116848997   -1.81241851689370
H          -1.19982713780269    2.03094875855501   -1.62654659746914
O           0.63922416848653   -1.82473855669753   -1.46413190484993
H           1.49746043870730   -0.90069175126752   -0.50635164117102
H           0.67921736325150   -2.74231912421724   -1.18765386901309
H          -0.30269641089208   -1.55981952455591   -1.42602386052624
O          -1.35019192774096   -0.61834885920472    1.46491352219467
H          -0.82725033287234    0.19130207262834    1.32903514028935
H          -1.74226178852559   -0.85369885137970   -0.04260199947800
H          -0.70810503866646   -1.26381370442784    1.82938455918168
N           0.81693702527635   -2.04577109793028    2.37634543584737
H           0.94718919620869   -1.72858952290614    3.32937798868398
H           1.47989842892818   -1.53856486905918    1.79656558560755
H           1.06400142790923   -3.02734385131943    2.34755911555550
