    26
        -50.44722216  Gyration_radius:  2.48009433447 Dipole_moment: 5.453
 S           1.69839989016137    1.07648778373299   -0.04435325440439
O           0.30215596941535    1.46978790412064    0.02603732925423
O           1.86872149065571   -0.19038154570675    0.84930616988063
O           1.99801863665995    0.58430154830388   -1.45901006237871
O           2.63207907596838    2.05095597913140    0.38085611124216
O          -1.63975621433069   -1.41509959581436   -0.90097620710921
H          -2.51625282876470   -1.70329381109079   -1.15777946825314
O          -0.96942359241632    2.57472010626352   -2.05673359099075
H          -0.60118773213138    2.32099260084544   -1.18900891359234
H          -0.47918093423222    3.34585716496769   -2.34557148868472
O          -1.71801537527195    0.10506426086466    1.17836394264081
H          -1.10324924524775    0.77053202404606    0.82245167539767
H          -1.75271618418565   -0.82791065720129   -0.09048014449275
H          -1.24803379447524   -0.26999670741497    1.95308017699201
O          -0.15749943164974    0.08913337101968   -2.64805465204575
H           1.12857620807075    0.33171404529200   -1.97192151085386
H          -0.71744197972064   -0.47543852309532   -2.08047944043250
H          -0.57004796699949    0.97936383599838   -2.63172369666501
O           0.79933678198283   -2.27848930552215   -0.22646743013348
H          -0.09405870020795   -2.05776884882526   -0.56115122049155
H           1.48291544130573   -0.98395523190757    0.37743206357325
H           0.68360259654126   -2.95424512441622    0.44434041906902
N           0.01684489976269   -0.65016229019966    3.17446684546409
H           0.84589660599345   -0.45648402590770    2.61941085625260
H           0.16908483226030   -1.51992410396827    3.67011837962181
H          -0.05876843914002    0.08423912648126    3.86784708113985
