    26
        -50.45270991  Gyration_radius:  2.56559044144 Dipole_moment: 2.754
 S           0.31004684893265    0.15342290455204    1.52705377854858
O          -0.33282073694064   -1.06928189322440    0.81372289012482
O           1.26917528899105   -0.31111919611569    2.47788150129733
O           0.84174450241051    1.02491621090115    0.49518154655808
O          -0.83646441879157    0.82452110619538    2.24052403239113
O           2.56928739113260   -1.96375405370518   -1.45124751982227
H           3.39293534752777   -1.53756484075878   -1.69399910479850
O          -0.40588892373682    3.20499772253169   -0.39320609850281
H          -0.12810473352641    3.97194556954748    0.11026008414438
H           0.17017159819440    2.46633296490205   -0.11079448517320
O          -2.40050297238602    1.71444233841196    0.55615646022567
H          -1.83158703128152    2.38536414444089    0.11549167720392
H          -2.54151493898515    0.98303865472343   -0.11604614011462
H          -1.57049690337940    1.21418384836939    1.53313551154158
O           0.33909567872169   -0.55519372696937   -1.59145168625508
H           0.67577972669052    0.27404063460697   -1.21612865307862
H           1.13173774743142   -1.13590068454191   -1.70081611044192
H          -0.14184441746232   -0.97666013413203   -0.17498557684624
O           2.66905258032982   -2.19076400855066    1.21901425195375
H           2.25471866488404   -1.45985786682336    1.72002568724888
H           2.33284190108774   -2.99868605372792    1.61147584073798
H           2.61691446528694   -2.10693293794848   -0.48026165296838
N          -2.60769039720536   -0.26039918336536   -1.21041131148274
H          -1.72112298892494   -0.30784584821795   -1.70256744510601
H          -3.35012481672611   -0.22544276754826   -1.89724025042637
H          -2.70533844239108   -1.11780292364340   -0.68076721707237
