    26
        -50.45271263  Gyration_radius:  2.5624123041 Dipole_moment: 2.800
 S           0.17071840131717    0.36730601597975    1.51421733757676
O          -1.07818718926813    1.03035882879526    2.03775727104951
O           1.06501619001445    0.09278812939913    2.59332118178496
O          -0.32323806883392   -0.97737388777432    0.90910610449024
O           0.73872681415165    1.14624299649455    0.42908725559972
O           2.82382918122750   -1.91512165416591   -0.95398274213985
H           3.63922204553735   -1.44655997849624   -1.13977325498534
O          -0.56185208478880    3.10250584219055   -0.82785954965838
H          -0.38277191841070    3.94352056108018   -0.40422476751423
H           0.03283223208671    2.44940015091013   -0.40702514854692
O          -2.53398460400380    1.58802364224350    0.12901229091240
H          -1.97197141359619    2.24393227431896   -0.34221435512737
H          -2.56309191421948    0.77371833508521   -0.45670047104921
H          -1.76788446326290    1.27413343103576    1.22720098851011
O           0.53475732659060   -0.70573249234345   -1.47638953250649
H           1.37042313400434   -1.23298455536564   -1.44137114332491
H          -0.04863178474832   -0.98905404556152   -0.06407231376649
H           0.77967044549029    0.18630806150796   -1.18293364546173
O           2.60285667630673   -1.89522347685509    1.71847708401102
H           2.13716845672935   -1.11891327129217    2.08856542023407
H           2.20307487298813   -2.66121047177334    2.13460678246578
H           2.76314503593633   -1.97082628233368    0.02524664747858
N          -2.44737754159790   -0.58841831964713   -1.39365161094433
H          -2.54916131294887   -1.38583634962709   -0.77808552019136
H          -1.51490390065322   -0.63055861837234   -1.79267821414955
H          -3.11838461593188   -0.68042485547071   -2.14563607475310
