    26
        -50.45270976  Gyration_radius:  2.56545920185 Dipole_moment: 2.748
 S           0.42990305181501   -0.07448920003612    1.50393264132757
O          -0.81311063557232   -0.73662158704055    0.84550594383303
O          -0.12598224552936    1.09437794433569    2.27762486938943
O           1.03626486180636   -1.00659786995948    2.40018378809937
O           1.28909827713921    0.39299460708336    0.43145997371609
O           1.00677101562909   -3.00725578867670   -1.58328676094421
H           1.91462048351776   -3.08682934085409   -1.88055663416459
O           1.37436260696597    2.92000236695107   -0.40809578239150
H           2.05256855007807    3.40289461561720    0.06696989148179
H           1.47298174940191    1.98111203588299   -0.15115292688264
O          -1.05010907727171    2.72891548069042    0.68094767155521
H          -0.23487303458118    2.99350026942574    0.19778459891431
H          -1.60431001993098    2.20624866713349    0.02793589217615
H          -0.56991466902543    1.83622282141122    1.61148282667955
O          -0.10963809490945   -0.61335637507159   -1.60207701721442
H           0.23414660232549   -1.52799698669139   -1.75308246221669
H          -0.65939942669979   -0.73993174782402   -0.15392972930912
H           0.64375047231491   -0.10760255418648   -1.25791780694055
O           1.12262716422914   -3.31380131947910    1.07844524734879
H           0.42903768531143   -3.82321962039845    1.50180972944630
H           1.02532291859323   -3.17622821184392   -0.61553221597011
H           1.19829684085874   -2.48707028173156    1.59572813936075
N          -2.39795115971853    1.22166309277595   -1.04377872783845
H          -2.91241825007198    0.54192029568996   -0.49742924593983
H          -1.70941273976185    0.71307139260978   -1.58943119804711
H          -3.04263291696216    1.66807729415132   -1.68354072546005
