    26
        -50.45271271  Gyration_radius:  2.56233708082 Dipole_moment: 2.809
 S           0.43376195191055    1.29088475771690   -0.77693065151435
O          -0.73429345638900    0.50064905572469   -1.12019386431263
O           0.92943146997970    0.80359654871654    0.61431777110107
O           1.57164881500451    0.98020592543889   -1.71617952215307
O           0.21556489900790    2.70132556220880   -0.72644393734599
O          -2.36176085121807    0.98206936079421    2.45104459093767
H          -3.26374532685362    1.14034001307424    2.16763795370177
O          -0.67668324685756   -1.59769636665163   -2.76138058533161
H          -0.83351103545933   -0.81648590641561   -2.19368880411239
H          -0.85688878109473   -1.31907568033786   -3.66067381873609
O          -0.98017979588221    3.12261792401527    1.61362551850127
H          -1.85753527248793    1.78916060133241    2.20594087839132
H          -0.25236599825146    3.41811846040476    2.16376950332581
H          -0.61654444769830    3.05029132958095    0.70867616809284
O           1.82787097482231   -1.46679345155762   -1.86095189227315
H           1.79886905960839   -1.81386897946382   -0.91992953850405
H           0.96898852072767   -1.71618127805569   -2.27096774717501
H           1.73970132866322   -0.09555850523176   -1.79341741068937
O          -0.93791932668342   -0.83964950320097    1.17442523924626
H          -1.50591400005398   -0.28934017640871    1.76770703132651
H          -1.24405420039698   -0.64832474049443    0.27360075021221
H           0.26385503232945    0.11992408805196    0.94936705294332
N           1.62780095724007   -2.27694262161415    0.66246439193479
H           0.66039658168095   -2.14070310277852    0.93827187085832
H           2.19288321466627   -1.65060464199690    1.22236897887813
H           1.89062293343570   -3.22795868289791    0.88754007244456
