    26
        -50.45271273  Gyration_radius:  2.56244236878 Dipole_moment: 2.799
 S          -1.25033068495994    0.48286040271631   -0.81114506288769
O          -2.06235629078942    0.04084621422622   -1.89962115100944
O          -1.18476928684602   -0.64032585125360    0.26250734873889
O           0.11594988854638    0.82401501270772   -1.16287005450108
O          -1.91594746373507    1.64026749321142   -0.11054698110630
O           1.18219355778009   -2.96618819604418   -1.53722399129410
H           1.70689972133153   -2.87868299515992   -2.33467208681706
O           1.41432374550763    2.93349010982667   -0.18141876185666
H           1.02575049365808    2.16771402683390   -0.65031475563006
H           1.29359858339553    3.69168907449150   -0.75533731839203
O          -0.42530299299863    2.44025875011535    1.68162474061863
H          -1.30156279989353    2.01378779339590    0.71108463167862
H          -0.10607299319525    1.62569155774648    2.17305707783968
H           0.34069920951683    2.75789211930178    1.15204184155523
O           1.33057296240836   -1.05736867420023    0.28228703450966
H          -0.21227682012342   -0.89340738607827    0.37522651986903
H           1.39795853478586   -1.85412435562698   -0.29914923255883
H           1.36337179014998   -0.29574165247954   -0.31825411618121
O          -1.34205728534284   -2.48867308118699   -2.30683580620171
H          -2.03856325939571   -2.97338951449016   -1.86014734229409
H          -1.61156600403316   -1.54905254479270   -2.27697544268658
H           0.24676983386624   -2.85672717438548   -1.81754949760003
N           0.43446437533596    0.20560495670831    2.83502950041161
H          -0.37105657041610   -0.39679421675198    2.95065034754241
H           0.91122360648575    0.27208615562157    3.72522921792220
H           1.05808613897977   -0.24572802446142    2.17332336042184
