    26
        -50.45059458  Gyration_radius:  2.46316841937 Dipole_moment: 4.142
 S           1.64510454702545    1.11922876727496   -0.21041023586801
O           0.44342495166351    1.38533513433568    0.55687570973002
O           2.09187116390811   -0.33705486779471    0.09608776950728
O           1.26065194468229    1.06067812809955   -1.69831771788138
O           2.72891047341326    2.00030190299308    0.01346423854192
O          -1.88000061160407   -1.10857771761530   -0.56841758866177
H          -2.70593672360024   -1.59182729707740   -0.53241102357730
O          -1.41658126520096    3.12710146887988   -0.26304051775053
H          -0.77091910053519    2.58561831823547    0.22992786455855
H          -1.00663939488562    3.98240098772004   -0.40036043230740
O          -1.09832185489808   -0.47253652707409    1.78645524579890
H          -0.41914135735196   -1.13174821174354    2.06152693465085
H          -0.59084957744004    0.31479196302842    1.52568146886400
H          -1.64511391986081   -0.86633632297372    0.38725922019865
O          -1.22495030071631    1.10413160727123   -1.99225405707302
H          -1.48156305447520    1.89993173411056   -1.47606221484214
H           0.22422389710679    1.09194753437619   -1.83688381082819
H          -1.58298243235691    0.33855028942933   -1.49871704925499
O           0.56896358443262   -1.72950547361850   -1.43185535788401
H           1.51733977217703   -0.93869515823383   -0.47018451918209
H          -0.36113721547113   -1.61563888411817   -1.13415274419017
H           0.64310325107880   -1.27916323076784   -2.27789187518249
N           1.01753417016136   -2.11946196053782    2.27899053679811
H           1.34929590470817   -2.21810646828655    3.23011614123498
H           1.69349174002022   -1.56148227941125    1.76674765410093
H           1.00022140802053   -3.03988342650143    1.85782637049771
