    26
        -50.45059458  Gyration_radius:  2.46316836456 Dipole_moment: 4.142
 S           1.35472356698605    1.41731766453686    0.39907963590927
O          -0.06983182699642    1.40376914683587    0.67116871853237
O           1.93913185550426    0.05263461032327    0.85778384654114
O           1.55180144910537    1.38670885607179   -1.12582155725299
O           2.08825852906646    2.46798074737593    0.99831114359084
O          -1.29041329623447   -1.39908916373367   -1.20987186930888
H          -1.96099984272157   -2.02894862125142   -1.47555530783266
O          -1.81410746900843    2.81920669006366   -0.78474055473977
H          -1.55972929030452    3.74303800599441   -0.76819205845381
H          -1.29614436003936    2.37598297538833   -0.08590697183605
O          -0.61706722091848    0.98608628291011   -2.30988703310403
H          -1.19409014893750    1.68431659453075   -1.92893942538374
H           0.65061041016311    1.23361178863961   -1.63452486966806
H          -0.97015915689486    0.13631851523444   -1.97656894655400
O           1.37600589739596   -1.49485800017138   -1.11222562615890
H           1.73809308362380   -0.60666538352655    0.12455252063793
H           0.39828137120069   -1.57603712116077   -1.17660814241979
H           1.65950058419089   -0.98366015571379   -1.87537058579965
O          -1.55166378232050   -0.78577193275933    1.26330091651613
H          -0.90139383894168   -1.32376270742263    1.77244263189803
H          -1.15047311803932    0.09774425747993    1.20115244564712
H          -1.46837609587266   -1.18108249461996   -0.23623270883826
N           0.52510511874448   -2.03899788568588    2.50759272074808
H           1.21577694620011   -1.33230822784172    2.27475264610919
H           0.84274946998927   -2.91663305907016    2.11552986425690
H           0.50441113505922   -2.13690138243063    3.51477855696293
