    26
        -50.45271245  Gyration_radius:  2.56301477218 Dipole_moment: 2.801
 S           0.87828298467344   -0.29111316973334    1.26545376526547
O           0.42500101033555    0.55808472345227    2.42610310726318
O           1.30753706686622    0.54927816050540    0.16265058224375
O           1.84331055213158   -1.24597328489857    1.70876191697848
O          -0.40349275090015   -1.04116207905421    0.80396594761508
O           0.89793770144841   -2.36124932717076   -2.48426907032043
H           1.69899003172953   -2.20436867175350   -2.98690870441615
O           0.80245358088434    3.16078312948732    0.00438452507074
H           1.09714117623471    2.22824408773064   -0.02178693002065
H           1.52028760586122    3.66037042878033    0.39680235211587
O          -1.14363552759242    2.26485596260877    1.58890560666297
H          -0.29318036372084    1.31534718523518    2.10707780212305
H          -0.55077762890201    2.78294117364592    0.99889703262640
H          -1.79013528087782    1.78945486244928    0.98672268086748
O          -0.48359530602451   -0.27947088983254   -1.62806002396570
H           0.26254865756526    0.28630634379727   -1.37307882611935
H          -0.07968880226841   -1.05710067376437   -2.08595127844817
H          -0.55703670694318   -0.80674831153531   -0.16764442969289
O           1.73628610179656   -3.21094735704712   -0.08260958215561
H           1.19796716421028   -3.86621264923884    0.36515290325961
H           1.18976623782931   -2.73322339659754   -1.62282263698858
H           1.89439020988136   -2.50361963348701    0.57404034963425
N          -2.72773566456390    0.91730630608977   -0.06641653450063
H          -2.98169623883297    0.05500766689478    0.39947425420122
H          -2.16540757479344    0.67080039128788   -0.87483959098222
H          -3.57551824601614    1.36240900207010   -0.39400522848038
