    26
        -50.45271279  Gyration_radius:  2.56192998172 Dipole_moment: 2.809
 S           1.30619233854007   -0.06292935106043   -0.86505664963979
O           1.85150070184141   -0.83607784912735   -1.93480874156116
O           2.13695728350750    1.17710209356678   -0.65144913398535
O          -0.09296043724454    0.47025606397162   -1.28572868739099
O           1.13700212860718   -0.77883703569188    0.38614990769145
O          -2.02078828622044   -2.75451900018335   -0.93591994841594
H          -1.79445581409699   -3.61508194454217   -0.57936014094788
O           1.69148020249979    0.25922954827700    2.77648480248884
H           1.50872741918811   -0.24702342059939    1.95946554121329
H           2.59587906077667    0.05834170184208    3.02253374984303
O          -0.19096596428627   -2.28327903184709   -2.83872902448782
H          -1.39619231330664   -2.59852811630521   -1.67842326024938
H          -0.47309130822288   -1.78015557049530   -3.60476227259708
H           0.62735802157086   -1.85033960651664   -2.52363573795584
O           1.22490924327667    2.41166407137166    1.27673940350390
H           1.75422417454020    1.77164531404417    0.18036646857344
H           0.23010016911231    2.44698881684421    1.15012090741183
H           1.38565048356042    1.76447333412684    2.00019297946216
O          -1.51941371836962   -0.61431250410290    0.52806104760998
H          -1.87169981796698   -1.40391437220158    0.04855429905609
H          -0.66604551347706   -0.89478324470258    0.89533373092354
H          -0.76503241593770    0.11169887190077   -0.62060476550901
N          -1.40367695515551    2.34686253550975    0.88946163649810
H          -1.69915702086554    1.38782912632840    1.04256074456696
H          -1.56608944532677    2.56123107885094   -0.08664622331669
H          -1.99041223644655    2.95245847084917    1.44909937709022
