    26
        -50.45271282  Gyration_radius:  2.56212697041 Dipole_moment: 2.805
 S           0.37675252651719   -1.38626575755791    0.62648635800990
O           0.66389758269341   -0.88130669001442   -0.81606738808439
O          -0.76324856647823   -2.36043708239402    0.46849296885143
O           1.53165109737114   -2.06482509206913    1.12173779041283
O          -0.04454467478777   -0.23905833794461    1.40955548437489
O           2.91061954676309    2.01865246519452    0.06966875529595
H           3.14690355885175    2.43134873290590    0.90201193034573
O          -2.58983441803666    0.32982155604523    1.95432369178034
H          -2.84773716653540   -0.07264554447133    2.78518716155633
H          -1.62457870531978    0.19417732880821    1.86988474502603
O           3.58807130509656   -0.56068024860158    0.35230251888411
H           3.89654956431317   -1.02283531219687   -0.42931268023595
H           3.21316737623348    1.08608588895775    0.13669750323465
H           2.89236014239834   -1.12883466900331    0.73902920140146
O          -2.76086544827968   -1.12208969661884   -0.27331348510318
H          -1.66698196831624   -1.85988770012912    0.11590476201960
H          -2.91438433617586   -0.54103006063038    0.50570443874023
H          -2.46333243142551   -0.51805957168462   -1.01729328315811
O           0.35255366436193    1.62335756172461   -0.45502858663649
H           1.29006836413002    1.92075030422836   -0.35434485697056
H           0.55868418834754    0.12445721810824   -0.81008357685212
H           0.06783057459974    1.36113816722838    0.43490557097696
N          -1.83379458155641    0.50914419972894   -2.15572690193420
H          -2.49731081510043    0.98888628296999   -2.75052773784781
H          -1.21685407896191   -0.03680091720322   -2.74433106839997
H          -1.26564232072837    1.20693698469598   -1.68586329573787
