    26
        -50.45271290  Gyration_radius:  2.56180700359 Dipole_moment: 2.808
 S          -0.68350346796039   -1.23958941771765    0.67332979616028
O          -0.44789602361478   -0.98357850812030   -0.84244212766576
O          -0.42961359806759    0.00993059269820    1.36671980301660
O          -1.99350381024473   -1.77770555764726    0.85725312134311
O           0.35231730309050   -2.26852002765926    1.05054640267312
O          -2.58298345314940    2.10401339469533   -1.20412851385486
H          -3.03712298957776    2.66193540397826   -0.57051405864415
O           1.84982503587571    0.57169539856676    2.62714257539789
H           0.95365184425566    0.45907469213767    2.25117730814900
H           1.79166996511699    0.31042765076616    3.54758090111443
O          -0.03863355746757    1.53229894326481   -0.78603475208837
H          -0.07788487002530    1.41973920578677    0.17706494649040
H          -0.25755979247977    0.00320515712326   -0.95562809965043
H          -0.92784688258091    1.87661143945387   -1.04718201649190
O           2.58674529238133   -1.25185884169692    0.82906249412137
H           2.53674692675501   -0.54975927376893    1.51650110051251
H           1.36268000248564   -1.87041458227173    0.94383734535529
H           2.59901493545611   -0.77667752776177   -0.05457005964489
O          -3.54382311692320   -0.36346422744595   -0.78013148409699
H          -3.06658567526040   -0.87841680427583   -0.09933504909753
H          -2.97391153306025    1.20808647228572   -1.10228727010843
H          -3.61586034245761   -0.94255195083978   -1.54123581371525
N           2.46275040011342    0.05751835913127   -1.48079288491070
H           3.32244265333299    0.39954155653649   -1.89082110572665
H           1.84240172147402    0.84809036142844   -1.33714816699994
H           2.01648301255942   -0.55963189873224   -2.14796439167086
