    26
        -50.45059459  Gyration_radius:  2.46316489931 Dipole_moment: 4.139
 S           1.83434306256401    0.77618300231287    0.19166880737816
O           0.99921778552351    0.66987846416009   -0.98944935341968
O           1.12815223437776    1.70178071707278    1.19640881477082
O           1.81899350976980   -0.60151323471894    0.90992434917470
O           3.17306610981546    1.17471845212216   -0.03222968073887
O          -2.22091119665578   -0.25635843069865    0.30018428880611
H          -3.13062663350931   -0.54292996296572    0.21517410123456
O          -0.29780374493123    2.77552867170194   -2.01434969864104
H           0.22063529762089    1.96499969400691   -1.84923654912443
H           0.33438173897944    3.46820103325824   -2.21197661721792
O          -1.19548627684934    2.25005310637870    0.44277622061187
H          -1.04475906500858    2.58251564041170   -0.46954085653773
H          -1.67045117792375    1.40026805657021    0.34243327610611
H           0.16026578303603    1.95029544775263    0.88734406877169
O          -0.76111002154395   -1.32145637828739   -1.51528608072008
H          -0.08993454994815   -0.61850488116082   -1.54449196614543
H          -0.30117990018980   -2.09354030582220   -1.11063757910362
H          -1.70901617526119   -0.68967764877209   -0.45968869470949
O          -0.38730241417920   -0.53247551228790    2.22107457065882
H          -1.13166617379633   -0.50351635135965    1.57939114252774
H           0.96306580777476   -0.64072744143010    1.43780111839189
H          -0.35887939455890    0.32919050044385    2.64634181096381
N           0.72822192257548   -3.18585239122910   -0.19650945850402
H           1.41807305371749   -2.52666359320443    0.15014339427254
H           1.21346789444055   -3.89350947130452   -0.73328170513762
H           0.30724251416315   -3.63688717295145    0.60601226633436
