    26
        -50.45271284  Gyration_radius:  2.56217665972 Dipole_moment: 2.807
 S          -0.16113869803090   -1.03559053929936    1.16460801264728
O           1.10574050427179   -0.74655505789022    0.51799742668481
O          -0.24726531162238   -0.32379750973569    2.49115265003593
O          -1.28020241948994   -0.38925096030601    0.29948554840187
O          -0.44859715491439   -2.42372224606676    1.33781326098639
O          -0.24842908476715   -1.79084301495656   -3.04729246722012
H           0.52020252981605   -2.28200196874615   -3.34203158293270
O           2.74796003060645    1.20973559063499    1.27768009842515
H           3.38455819608246    0.87869640656718    1.91326902008977
H           2.25928788887245    0.43023356735427    0.94495428647867
O           0.12521789364968    0.42807891129877   -1.66425312511471
H          -0.83950962871661   -0.00656063959701   -0.52649443378200
H           0.87586077968801    0.13113216290888   -1.12559437274759
H          -0.02780171486778   -0.29343279340553   -2.32265411724122
O          -1.28693550154962   -3.24827909567150   -1.05002906008400
H          -0.67488990367218   -2.34684097720568   -2.35829869241919
H          -0.92079344387090   -3.05185761731223   -0.16478556595463
H          -2.24015728514826   -3.23405889997283   -0.94625965635644
O           0.37359156420634    2.03848304938392    2.15964115511079
H          -0.00399175910927    0.73509504255375    2.38971147943580
H           1.31307543221761    1.94326508166327    1.88364904084396
H          -0.12481737037598    2.35364258542630    1.34785753711925
N          -0.91343633514034    2.72461240299175   -0.06253066422425
H          -0.45871505950665    2.23723266155849   -0.82813629014394
H          -0.97507956701763    3.70562173125211   -0.30342347670735
H          -1.85373459258946    2.35696213615843    0.01396401871446
