    26
        -50.45271282  Gyration_radius:  2.56202669773 Dipole_moment: 2.804
 S           0.44640965400551    1.45364562613202   -0.37787827305176
O           0.91285772309219    2.19495671658130    0.84952952168138
O          -0.98246983412197    0.95735348516395   -0.01683320498164
O           0.36259359611840    2.35077605086727   -1.48585591967524
O           1.26832235027871    0.27813564347978   -0.60030801458424
O          -1.45386732435153   -1.44342777941437   -2.89097132849622
H          -0.86140930252106   -1.77177275832890   -3.56929246419861
O           2.93790665271119   -0.72772948138266    1.21618812635728
H           2.40691110907645   -0.42051761375055    0.45399653565811
H           3.81154763441241   -0.34858829492847    1.10745099238912
O           1.15393199969769    0.58347414631478    2.69867015152223
H           1.01036473812550    1.52401059443487    1.70497277760462
H           0.32573803419133    0.01700138801379    2.69482306257391
H           1.87642965982447    0.01374400275228    2.35017541183485
O          -0.66075775911110   -1.54641027149902   -0.37399431400518
H          -0.98456392226142   -0.04964422543905   -0.11030178022837
H          -1.04034609668305   -1.66201324489144   -1.27958816434022
H           0.26980472064199   -1.30826806808140   -0.51254320214732
O          -1.39138040342179    1.22577563847228   -3.14163039016177
H          -0.68418758262892    1.66969565810566   -2.63247399128544
H          -1.49005109984889   -0.46918462199695   -3.01444760721870
H          -2.19700053950795    1.70574641599784   -2.94080566899419
N          -1.03142969435144   -0.91892295664723    2.52151052503633
H          -1.25896965582833   -1.53501448262925    3.29147768237154
H          -0.93400471761578   -1.48160917201137    1.68225376358270
H          -1.81237992986384   -0.29121239529295    2.37587577269966
