    26
        -50.46224012  Gyration_radius:  2.54863951508 Dipole_moment: 4.826
 S          -0.41938859922272   -0.89037517446580    0.67468730737882
O          -0.02146630544308   -0.53886978715044   -0.68400430948896
O          -1.41492911080617   -2.08124224802963    0.58701753913968
O           0.70936293514186   -1.27300452852495    1.49744847926877
O          -1.21472190111690    0.19710865217167    1.27116436016984
O           1.37697602004640    2.95951585476543   -0.45065897387782
H           2.31314314396990    2.98758931535578   -0.65295564515886
O           2.03810795773868   -2.30980752829929   -0.53294063866663
H           1.80911747428223   -1.95991862540607    0.35055875200621
H           1.57241306751849   -1.70583952418377   -1.12574143623626
O           1.10483858673538    1.43150209596561    1.73850246804903
H           0.17385986484282    1.15289110161063    1.75120796834492
H           1.57597873846999    0.59345364471397    1.81225745291104
H           1.29447853701310    2.44794091646778    0.38588256063667
O          -0.35289028294677    1.68649196878664   -2.01378195205405
H          -0.16127103513279    0.77497064135036   -1.69084584920842
H          -1.50359044448220    1.88870719756438   -1.16335547195745
H           0.33638960845270    2.24407978731630   -1.58183346657253
O           0.10997030391031   -4.06727416914682   -0.12086595856647
H           0.90856730637149   -3.54999222518440   -0.39804194206985
H           0.36145572354685   -4.53484636224843    0.67865772696618
H          -0.90400340521359   -2.88060617826498    0.28100493993794
N          -2.27533124603376    1.88515861579584   -0.35459320550513
H          -2.33585040346429    2.79300602185096    0.09539009675130
H          -1.89885755724651    1.15433095795676    0.34963250542148
H          -3.18235895678776    1.59502955941722   -0.70379331742489
