    26
        -50.46224007  Gyration_radius:  2.54880999848 Dipole_moment: 4.821
 S          -0.19103019681463    0.90774021460767    0.75057650791852
O          -0.57455102854343    2.00603180954926   -0.11199827351649
O          -1.33786448167175    0.07584776761173    1.15531144366665
O           0.85246712346885    0.07707614849712    0.15976271365546
O           0.35356508419069    1.47650648882449    2.09106953573182
O          -0.91240390751031   -2.11777823574051   -2.35438783386009
H          -0.63967532944241   -1.92642085020614   -3.25276964539127
O           1.84556714000509    2.25607728380073   -1.13254241870853
H           0.88450994444289    2.34465994995152   -0.97696110105881
H           2.00272159124341    1.31996988521280   -0.95386686183793
O           2.13493911601737    3.20675534394219    1.31421008083765
H           2.21045090962453    2.92657892137051    0.36652118895552
H           1.71284486560785    4.06862555550004    1.30261564596781
H           1.07625618491230    2.12735940112381    1.87260569169043
O          -2.07382688912246    0.10901530417901   -1.40959927283028
H          -1.66661145044028    0.97130758761367   -1.55216051053482
H          -1.38962116161209   -1.31724803711675   -2.03858016802322
H          -2.05765056829652    0.02445668562148   -0.44153441516812
O           0.85547052277269   -2.47469046498290   -0.40391051617614
H           1.05141764504519   -1.52235742634457   -0.24090134354088
H          -0.11435910866299   -2.59421148936958    0.66035626431136
H           0.29059312202709   -2.46873911218926   -1.21224101668594
N          -0.90135767975016   -2.44332828720635    1.43995392336620
H          -0.56609955966885   -2.69395005610970    2.36386379912827
H          -1.74513149506659   -2.95888261855926    1.21054971287351
H          -1.10062042281047   -1.38040180961072    1.39405685923458
