    26
        -50.45059453  Gyration_radius:  2.46321410873 Dipole_moment: 4.141
 S           1.34131089557873   -0.08656374864254    1.48204921559862
O           2.33326536547314   -0.23539899970209    0.31630713965563
O           0.56494132328863   -1.43225199577621    1.45863041457579
O           2.01004573267163    0.04874396395884    2.72120693169477
O           0.40645830798426    0.97079156511233    1.14793760623437
O          -0.81518773578581    0.06008553642902   -2.10225168641354
H          -1.39581645130008    0.15093902459132   -2.85830577569695
O           1.18142890023265    3.23346491082184   -0.05430100760659
H           1.86211988426426    3.65255769751011    0.47434562793204
H           0.77959202926807    2.54308070192953    0.50693881284082
O          -2.05405654582524    0.63052303227350    0.06602907220628
H          -1.35724925164996    0.32555740842319   -1.28817257437039
H          -2.32939779492479   -0.21921981497873    0.48261833046208
H          -1.27166795032418    0.91334886542164    0.56931548696157
O           1.62947752453417    1.14327930230857   -1.65105176182310
H           1.51230823039798    2.03284428395929   -1.25037153249317
H           2.05873766189819    0.34648538843389   -0.50855994087850
H           0.73249541120783    0.84314830317868   -1.90243037842976
O           0.50275564339380   -2.00638533684150   -1.04320816902506
H           0.49638179691141   -1.70751685511672    0.49310690689325
H          -0.03332918752310   -1.32517164675275   -1.50712719377372
H           1.41413468938650   -1.87172282551739   -1.31769464996645
N          -2.42786551372673   -1.77176371086815    1.29970676876632
H          -3.09409101996846   -1.83242977999743    2.05924914989542
H          -1.49446043904812   -1.82117698846842    1.69590255225355
H          -2.55233150641588   -2.58524828168877    0.71013064450680
