    26
        -50.46224030  Gyration_radius:  2.54851664659 Dipole_moment: 4.826
 S          -0.71039344425878   -0.95217095812299    0.10837459976365
O          -0.54845652066237   -1.35422040607811    1.49024023387290
O          -1.20977307003396   -2.16774134286791   -0.72223187001229
O          -1.76631742027090    0.06002153401359   -0.06892362330666
O           0.53914588393764   -0.48814243320813   -0.48417892386965
O           1.01460202277949    3.02755668413026    0.80717769616103
H           1.78245373123718    3.09751575621019    1.37612768092052
O           1.92716101062735   -2.19043499964346    1.12139965029640
H           2.01517404017526   -1.56230889900109    0.39290875409490
H           1.08869305666558   -1.91424882106876    1.54103356754166
O          -0.68496897137984    1.33574130080814    2.01067826019972
H          -1.28578614108704    1.02483878919643    1.31289304044316
H          -0.36322096431951    0.51128810111845    2.39348050535060
H           0.37320111660486    2.45429265321340    1.28512247079099
O           1.13848613583204    1.81902799686156   -1.55517703089983
H          -0.27167092252125    1.91840444051352   -1.85272799609844
H           1.22721620405743    2.36507749957363   -0.73872761841572
H           1.09514742287879    0.89257320236059   -1.22084117444817
O           0.48114584096868   -4.04108880808894   -0.08771192848298
H           1.17603848644300   -3.47720728723828    0.33794061619438
H           0.08637204566810   -4.55453466467389    0.62052176299730
H          -0.58135126015953   -2.92380919118455   -0.55808094789297
N          -1.38516413093617    1.82811691879969   -1.89851513171194
H          -1.60537793250548    1.05988690203305   -1.16860702923473
H          -1.69957360826187    1.53439917848313   -2.81704278191101
H          -1.83278264146908    2.69716688384662   -1.62513278235475
