    26
        -50.46224014  Gyration_radius:  2.54849545058 Dipole_moment: 4.828
 S          -0.55809029541914    1.05202086868903    0.07994741862419
O          -0.45797396302642    1.60895197209930   -1.25315524539098
O          -0.77537158673178   -0.39035787478102    0.06355188530630
O           0.60380259210855    1.38361076109342    0.92318804851113
O          -1.75926548606163    1.70691730081949    0.81855735384738
O           2.60572999157031   -1.91285576227027   -0.63957948120266
H           2.62861991990749   -2.36300743294582   -1.48514628811352
O          -2.12697880301344   -0.15512371965004   -2.28567510399151
H          -1.46088398971723    0.55383927399573   -2.18997429492144
H          -1.87186932579105   -0.77857979006519   -1.59336110537044
O          -3.71343465968934    1.41663358601003   -0.87497028620017
H          -3.77732853210522    2.22965886454989   -1.38093301038930
H          -3.29139124013844    0.75228792669394   -1.47717980354402
H          -2.56402461705567    1.60028398110856    0.24012661811165
O           2.12045372272218    0.67541811381343   -1.15562141034084
H           1.79149003583214    1.05293966349653   -0.32269051996467
H           2.48748160455272   -0.95736389532814   -0.84318123213975
H           1.43689215768785    0.92990268099425   -1.78624941534401
O           0.64564979403289   -2.31944914530023    1.10668685333627
H           1.08297299769323   -1.32694749703919    2.06120918387141
H          -0.02454101537157   -1.73974111105024    0.67452607367329
H           1.39202980693672   -2.34487443385536    0.46259302428371
N           1.35069023172295   -0.39779964057627    2.62242431796171
H           1.02029119660275    0.39679326660418    1.96588229322297
H           2.35417301404057   -0.33164840257175    2.76018485137329
H           0.86087646875265   -0.34150954453755    3.50883928476685
