    26
        -50.46224013  Gyration_radius:  2.54862901935 Dipole_moment: 4.827
 S          -1.04338970309079    0.53328446820974    0.22775430059560
O          -0.21171331521814   -0.00237385050871   -0.84427434877710
O          -1.99654879148265    1.59361303774717   -0.39236291890167
O          -1.83154543812079   -0.49301927856699    0.87804764753864
O          -0.22009921830535    1.30393801809144    1.17598944981966
O           2.74457611751720   -1.60153164602859    0.87407807208218
H           2.76325561044503   -2.55145817394190    0.74983649978056
O          -2.07893727793623   -1.92175864907829   -1.32665051920140
H          -2.09612030149307   -1.63993121918787   -0.39083837051489
H          -1.24550731152967   -1.55017884129677   -1.64336903284599
O           0.49460962636867   -1.04356988142145    2.22536644842289
H           0.32373621023255   -0.09873535996763    2.07481917081393
H          -0.34221215488273   -1.45113470013148    1.97359954753466
H           1.94832722209230   -1.41437121593126    1.42125171718610
O           2.38139937141786    0.06867501750114   -1.15944279015155
H           2.64908729893534   -0.61636330718439   -0.50245467879789
H           1.40338949000468   -0.03471983243932   -1.22892964492479
H           2.33079507646926    1.27179727598677   -0.36158138461812
O          -3.66062372536153    0.14623595794417   -1.77319753623488
H          -3.15409279418431   -0.70551522832392   -1.77173019889721
H          -4.43326986327709   -0.00392459582780   -1.22406310463397
H          -2.64799075078348    1.11168288396006   -0.97292091164206
N           2.07374772088015    2.10887328210286    0.33376307174897
H           1.08857620999285    1.84291229648172    0.69452388757817
H           2.03724848424438    2.99961854036735   -0.14999665580086
H           2.72330221702461    2.14795499147402    1.11278225285183
