    26
        -50.46224034  Gyration_radius:  2.54845174795 Dipole_moment: 4.824
 S          -1.01093801781754    0.52886647379568    0.34943519065561
O          -1.61720262403130   -0.48685193121845   -0.52902576637988
O          -0.95083778518710    1.83764382793490   -0.26793686325695
O          -1.96533960580980    0.58540640953947    1.57528309682220
O           0.29427566686613    0.07694815059469    0.81855771607015
O           2.11064382498351   -1.11409456855785   -2.26935918736439
H           2.87170188867713   -0.56717057022272   -2.46898828012128
O           1.01139394162301    2.65897984919564    1.29328065014238
H           0.35639094206906    2.60021781342338    0.57003929798960
H           1.29837521453601    1.74217798755487    1.39289807796854
O           1.67023096882321   -2.05040304328151    0.17708968193867
H           1.99206049610960   -1.77942391126298   -0.71492079998959
H           1.29711212631746   -1.22191216946079    0.55945494697322
H           0.38856198835935   -2.64978938797442   -0.11480013160067
O          -1.07318603674078    2.62957000284516    2.91563800953017
H          -0.20017482819139    2.73796613596454    2.45936649821068
H          -1.60088007959867    3.38994510504280    2.66178324269439
H          -1.65931411903361    1.33054701012875    2.16235698914607
O          -0.04754635651474    0.46745880782228   -2.46487124135813
H          -0.04280023975812    1.34789514735795   -2.07148721489981
H           1.32152804722576   -0.54130599925967   -2.40266665942035
H          -0.75095297929179    0.01761420942195   -1.96746724735918
N          -0.67864892593235   -2.87620017604271   -0.35966776792922
H          -1.11864608153191   -3.43355489369117    0.36458827543258
H          -0.75629489286311   -3.33260968760726   -1.26299604805894
H          -1.13951253328411   -1.89792060215792   -0.40558447582467
