    26
        -50.46224031  Gyration_radius:  2.54842909929 Dipole_moment: 4.826
 S          -0.90825326467506    0.77298927965919    0.03081869950254
O          -1.19816102745132    1.02656339440610   -1.36531787217219
O          -0.55087077768356   -0.61941788675640    0.27886116290926
O           0.13016813929098    1.66995008343495    0.56747435644101
O          -2.16705598494753    1.10139862013563    0.88194605045695
O           3.03887714710062   -0.94309341722028   -0.84977590966882
H           3.12638867634652   -1.52488180999877   -1.60611642909430
O          -2.16830201095519   -1.39470448133619   -1.76649906211281
H          -1.60826831824880   -1.72110345493475   -1.05037239248860
H          -1.82216095417619   -0.49255794406251   -1.91375176340971
O          -4.05046092790145   -0.22441991748648   -0.32894395720697
H          -2.93260582315024    0.59255908971445    0.49654450990460
H          -4.48627815112416    0.38277145625854   -0.93100720312552
H          -3.48297716040025   -0.80882813771891   -0.89318419669276
O           1.52841744770409    1.12855608937034   -1.64049245335966
H           2.53539803616002   -0.15908458128284   -1.16650674404092
H           0.72475975537913    0.97934593161082   -2.15218487118070
H           1.18766569978129    1.53175031601823   -0.82454323586365
O           1.63072477706216   -1.64123703046264    1.29187017454970
H           2.23923969191112   -1.53431504292282    0.52317666519588
H           1.76476186721351   -0.37878665410463    1.98167460664309
H           0.73838478744638   -1.44674845135064    0.92059331386267
N           1.71841013066214    0.68146406377883    2.33334745474725
H           2.62580999673546    1.13016976486632    2.25842165636212
H           1.36135277687409    0.74644759123683    3.28048073282580
H           1.02503545101643    1.14521313897901    1.64348675694267
