    26
        -50.45059453  Gyration_radius:  2.46318137713 Dipole_moment: 4.138
 S          -0.24004936080850    1.95183989636469   -0.36917352526121
O          -1.44698387868622    1.45300177717841   -1.18119983453094
O          -0.66871874896563    1.68508817644627    1.10027642479437
O           0.89014289455919    1.09200629567796   -0.66445561752412
O          -0.02588239938422    3.33814426118763   -0.55211220644196
O          -0.36632653436858   -2.22362649490995   -0.09982169273427
H          -0.27659509933884   -3.17265106370392   -0.00904943346180
O           1.40018050551206    0.20465669092096   -3.13816438060052
H           1.42940544269216    0.56113551597598   -2.22983535439452
H           1.49046568367061    0.95427689076914   -3.72844822576423
O          -2.08842057656574   -0.44454947385803    0.89882046096755
H          -2.67459796059696   -0.24465050938671    0.16358516710181
H          -1.50789301829756   -1.18038234110474    0.60182994911580
H          -1.22514963207464    0.84658895248429    1.08949760001775
O          -0.94879207741542   -0.73534101999074   -2.29065273721276
H          -0.70751906840161   -1.36577147989145   -1.58203135533083
H          -1.24821581201126    0.54540501782517   -1.66163674159516
H          -0.11423493900171   -0.53923979962031   -2.77089586700726
O           1.70345132224922   -1.02535402046003    0.81745066415454
H           0.49207353112813   -1.81689396052975    0.25364311811267
H           1.62927615948435   -0.23269446922928    0.25918491603263
H           1.48725760587946   -0.71481636627301    1.72751128228608
N           0.86861095237353    0.10217829056230    3.15519337094265
H           1.56209200375688    0.43422725900252    3.81335697549984
H           0.15015877917327   -0.38355493402171    3.67727146361495
H           0.43626423543804    0.91097690858405    2.71985554921862
