    26
        -50.46224029  Gyration_radius:  2.54845894729 Dipole_moment: 4.826
 S          -0.85120183011970    0.82439469466331    0.14343215321992
O          -1.55921797536248   -0.01819775597581   -0.83630176243142
O          -1.95596924783587    1.23195680603588    1.15855754958560
O           0.14635504652083    0.03700766053006    0.85946182868204
O          -0.28699521737569    2.01843215785431   -0.45103626075723
O           2.06049521244590   -1.82452685619772   -1.80934438717636
H           2.97487578064585   -1.54244867531565   -1.85904932671714
O           1.50417812988133    2.31589872104817    1.46379075632581
H           1.00948355840590    2.41150503263176    0.62613343050122
H           1.47726779078013    1.36254430221763    1.61677220985560
O          -0.75702429243688    2.99801306974841    2.64656827141222
H          -0.97422997510814    3.86401535365763    2.29450770999330
H          -1.55517575577935    1.88745972943529    1.79364921853645
H           0.17721110428627    2.81678840596886    2.36999625648413
O           0.55927473986449    0.31232844727301   -2.42532341347352
H           1.52167195789291   -1.05212817837144   -2.09486473183369
H          -0.32710407841633    0.12179899775468   -2.07519169839029
H           0.75604028145433    1.17442018430302   -2.04070444711429
O           0.91020591094905   -2.43702874591824    0.50556863437581
H          -0.41381041730369   -2.64795087138073   -0.03325187223695
H           1.45986153497741   -2.32834612938988   -0.30596880436595
H           0.73942146332577   -1.51343294743997    0.80517457351388
N          -1.43316235416307   -2.56357166035882   -0.48455357496566
H          -1.47249814723412   -3.02981200275271   -1.38534195106923
H          -1.56071397198805   -1.49734749027016   -0.62081078093230
H          -2.14923924830647   -2.92177224975912    0.13813039896261
