    26
        -50.46224031  Gyration_radius:  2.54850657938 Dipole_moment: 4.824
 S          -0.37994001400654   -1.12993188493971   -0.05921619225749
O           0.72391922166665   -1.24436529866514   -1.02842724480254
O          -0.30901739415311   -2.45463974547379    0.75125537982622
O          -0.13075048433477   -0.02722496912703    0.86265682286998
O          -1.67599323697857   -1.03121774183803   -0.69789149635182
O           0.82290890678947    2.90507796120135   -1.31774628452243
H           0.17478312708379    3.60953882325940   -1.27481090284977
O          -2.79452682677748    0.12412406597512    1.39452579591818
H          -1.93001027346875    0.47607249182868    1.64295891661232
H          -2.63409497712688   -0.21894537233275    0.49343986988096
O          -0.42801670479164    0.76774700910157   -2.35021163852077
H           0.37154450344824    2.14641199435931   -1.75265130661595
H           0.11375235652479    0.00004756529986   -2.10193527659094
H          -1.30458278490559    0.51600049982720   -2.03697375887264
O           1.78051719895488    1.75510095050257    0.87693212089461
H           1.47691107358996    2.33309927093152    0.13772460213709
H           1.01077561985821    1.16440088152103    1.05150936038289
H           2.56495013990967    0.75187544109165    0.19452007192418
O          -2.47546803449873   -2.37429076713851    2.19051685153748
H          -2.70633157189940   -1.41948655805798    2.06001451861847
H          -3.14789051433202   -2.87558825751346    1.72409102278378
H          -1.09701390882526   -2.47759941108613    1.36119481555935
N           2.94816190887226   -0.11876440637335   -0.39296327296074
H           3.42173664788881    0.19046951978810   -1.23582220831662
H           2.04845087408779   -0.65895470385750   -0.65824325758585
H           3.55522514745490   -0.70895736828471    0.16555268128702
