    26
        -50.46224025  Gyration_radius:  2.54833017028 Dipole_moment: 4.829
 S           0.36066353590174    0.67168525176576   -0.91861140820955
O          -0.22624340768335    1.61180148935780   -2.00889543132777
O           1.47708031411894   -0.06401688053104   -1.47529272040525
O           0.76573241029197    1.58708155268160    0.16258421303562
O          -0.71012409435127   -0.20734671058514   -0.46197697501724
O           0.45096888726777   -1.55974480586913    2.86544946546917
H           0.60306617750724   -2.50536547461630    2.83740171768263
O          -0.05652411098741   -2.00270032584626   -2.39915026657368
H           0.72244268651697   -1.47971182049593   -2.12500533788419
H          -0.69608683450624   -1.80966737002593   -1.70154777583947
O           2.18559167578574   -0.44713779122905    1.14688024175371
H           1.82897071155321    0.43448906077775    0.94662515978755
H           1.13062155453381   -1.15732809076669    2.27851229273757
H           2.31527221882734   -0.82537621848329    0.26942536858635
O          -0.58626757996834    0.00910707850709   -4.02689644749126
H          -0.42778159279529    1.05480538720859   -2.81062942825775
H           0.18482754834166    0.08464320530016   -4.59327857409094
H          -0.49207575355757   -0.85474564364426   -3.55043745524805
O          -1.77599831958254   -0.47190060368958    1.90924733063729
H          -1.37535879481240    0.90076180438937    2.11638519679051
H          -1.52435471152447   -0.49626215218640    0.95632576447610
H          -1.05903249384699   -0.97726346044755    2.35988836434005
N          -0.90362268170832    1.91406879398509    2.09247167141000
H          -1.58790305383110    2.64174416645484    1.91630676284382
H          -0.21021461020520    1.84953282340598    1.26377438931573
H          -0.39364968152427    2.09884671463036    2.95044390146415
