    26
        -50.46224029  Gyration_radius:  2.54856195964 Dipole_moment: 4.822
 S          -0.60733915198268    1.00334322410497   -0.22241827822693
O          -1.55718906668884    0.06057387751261   -0.83890804961157
O           0.20534887436492    1.69690581866016   -1.20011244468952
O          -1.51671212296846    2.03125408968554    0.50803651418043
O           0.19809808590864    0.32259653196850    0.78539181639559
O           1.43414495735048   -2.83280794497391   -0.87840452514560
H           2.38601522065162   -2.83116912528648   -0.98836077346313
O           2.11576073841356    2.23713034308134    0.53798045597030
H           1.61499342326077    2.12855821435283   -0.29450732646556
H           1.85984469417197    1.45361886777218    1.04152399715458
O           0.48628624547604   -0.78636818572124   -2.33189943289497
H          -0.39856777456542   -0.59751153259284   -1.97696525669702
H           0.91481254377862    0.07675061540727   -2.29769717913990
H           1.09170409516509   -2.11807566533016   -1.46180360071594
O           0.16699955223090    3.86374153493960    1.26828783555615
H          -0.92996619363735    2.75381833433552    0.86475832810655
H           1.00918011004391    3.36177522663597    1.12378816803665
H           0.15469714217265    4.55711988040333    0.60487328708792
O           0.29406345634293   -2.20615436280075    1.43769758152788
H           0.37790023342203   -1.22740792210578    1.35409504332841
H          -1.06765834265771   -2.26355710050037    0.95864171373353
H           0.80836662703891   -2.55731863854784    0.67301460841907
N          -2.05638600864434   -2.10198632130702    0.46223118269445
H          -1.91898892257101   -1.17308034900168   -0.07606598650486
H          -2.80408027408232   -2.00257092655851    1.14036034622669
H          -2.26132815200505   -2.84917850410968   -0.19353803487887
