    26
        -50.46224014  Gyration_radius:  2.5487128043 Dipole_moment: 4.824
 S           0.55156069179607    0.87006309618083    0.60171632673992
O           1.22000215748648    1.64075999707988   -0.42625148687580
O           1.36916548574520   -0.25352799245896    1.09166124263987
O           0.34632931038376    1.76292733572987    1.85784359216176
O          -0.75842883789466    0.39245240614720    0.17311260197709
O          -0.06639169000481   -2.58855278180628   -2.03914498363585
H          -0.32763784909696   -2.43015234824868   -2.94737709765169
O          -1.03909470314470    2.59360789303161   -1.40162024896349
H          -0.09726939157786    2.35662522055784   -1.29061610627106
H          -1.49420083282995    1.80530062874320   -1.07835710694429
O          -0.77587380863138    3.89752713398240    0.88047108452382
H          -1.02344523289114    3.54097607614050   -0.01044791677622
H          -0.11875169698628    2.59441533119103    1.56488395350678
H          -0.08100607231585    4.54083368019850    0.72437877376814
O           1.86356394511916   -0.81332155650327   -1.47060180367523
H           1.76841566911318    0.11144561249555   -1.72664712832591
H           1.89711654883894   -0.76205525933327   -0.50064645323777
H           0.68149270664632   -1.97453613128633   -1.86017015673523
O          -1.68735993667078   -2.04393092652377   -0.00609343700862
H          -1.22090656645104   -2.34207919859505   -0.82222105657771
H          -0.73770208298808   -2.35853363409790    1.03677320116206
H          -1.52914458551723   -1.07122242668812    0.01903324030390
N           0.11117423262081   -2.39468709362159    1.76318950402406
H           0.70349695905257   -3.20097328061509    1.59177102757496
H          -0.21706398854866   -2.38633436261208    2.72288553291925
H           0.66195959875362   -1.48702740910913    1.55247490139212
