    26
        -50.46224031  Gyration_radius:  2.54848264596 Dipole_moment: 4.823
 S           0.52621626741745   -0.63604256941356   -0.86214009093647
O           0.69505641118466   -0.15263773270957    0.50374566922938
O           0.90532815972701    0.35523001448927   -1.84762847309669
O           1.41904309600015   -1.89689281655278   -1.03589206503811
O          -0.84465019964333   -1.13881865677731   -1.05979549522895
O          -2.27806649318116    2.08141946016752    1.15294221649202
H          -2.01932233314983    2.99580122814513    1.27595431126829
O           2.77750630050996    1.39907027992973   -0.30892787082300
H           2.28388516046839    1.10515794436522    0.46750821907633
H           2.13840122789045    1.25620695346073   -1.03469200991432
O           3.82724186635412   -0.91119182818618   -1.04202030862742
H           2.37012541366297   -1.59968828874332   -1.00973948204674
H           4.08586621155471   -0.79170864392576   -1.95847957818215
H           3.61875586679799   -0.00606664004058   -0.69643746918445
O          -1.57627684984720    1.41143198021367   -1.34843621330900
H          -1.54347056589619    0.44019885345247   -1.36264279203291
H          -2.07187048091700    1.86420413160379    0.21547574310897
H          -0.70972050938468    1.65568759354088   -1.69380741730474
O          -1.05343541491856    0.09963002560051    2.42950482957800
H          -1.53218737491826    0.90332341996411    2.11737085153153
H          -1.76378550818560   -0.97100719549542    1.76872827518411
H          -0.25878520129605    0.05262968409120    1.84793631426691
N          -2.18099359295812   -1.72688517270534    1.05844473412874
H          -1.62218964062069   -1.55238715383223    0.14802225741952
H          -3.16831964519428   -1.56245898409495    0.88965704757516
H          -2.02435216140311   -2.67420588645431    1.38534881669147
