    26
        -50.46224019  Gyration_radius:  2.54852878557 Dipole_moment: 4.827
 S          -0.73201271310022    0.94255449371155    0.00519117000391
O          -1.61349592843913    0.01586618947435   -0.72644201003523
O           0.22118425971317    0.19663830909910    0.81936062387716
O          -0.08171455074243    1.89965625970417   -0.86570034578245
O          -1.69284413697968    1.69707731823176    0.96675776677299
O           1.67225143402853   -2.42449417810973   -1.47653920891416
H           2.60671772313204   -2.28496390519682   -1.63609516259378
O           1.88380081707551    2.35010416255421    0.83641216415128
H           1.75712420860357    1.46206669443888    1.19473387282239
H           1.33649783329682    2.33341207345301    0.02669502831202
O          -0.17503712141632    3.55969346541149    1.96573472826414
H          -1.16642129057564    2.41159196611924    1.42064085709025
H           0.70504345618464    3.20187498515628    1.68382050492840
H          -0.31694085056788    4.35402704561758    1.44609654480075
O           0.39279245376063   -0.28123580684715   -2.46123585576000
H           0.72168514226878    0.60812382373306   -2.28619640989612
H           1.20844398011942   -1.66350824223891   -1.89398208775715
H          -0.47843184470423   -0.27342773939270   -2.03061644785679
O           0.65190021172883   -2.37617261369221    0.97579256156259
H           0.61798242858415   -1.39580567328237    1.07428330210933
H          -0.72774274212778   -2.51571719361473    0.56945231226170
H           1.14183939930233   -2.51571022375507    0.13138897174764
N          -1.76339593210383   -2.39181381297312    0.16713507626036
H          -2.46315472342615   -2.51134723774081    0.89161045740010
H          -1.93253729786962   -3.02760483669815   -0.60583453869140
H          -1.77353422577864   -1.37088532340912   -0.19246389526144
