    26
        -50.46224017  Gyration_radius:  2.54846156121 Dipole_moment: 4.825
 S          -0.64703032419758    0.29950616494948    0.95777694861968
O          -0.74153935253966   -0.19482350997545   -0.41135341566227
O          -1.99861458058800    0.98056085443357    1.31350257998430
O          -0.38318357707405   -0.76052161765185    1.90867059950284
O           0.33665961498559    1.39357125978483    1.03864428527293
O           2.81943157829315   -0.72828744984862   -1.54102285831447
H           3.01224137920109   -1.65325877362856   -1.70034102626073
O          -1.72025228960554   -2.55875866005454    0.51540085922331
H          -1.52820694028235   -2.05844092471185   -0.28817577474189
H          -1.13717031541908   -2.13438925886364    1.17532315302454
O           0.64843109837882    0.43884605550557   -2.53181160482471
H           0.84870791249284    1.71212663004137   -1.87868581429365
H           1.48635196962654   -0.04134397516532   -2.33216851003491
H           0.00993026241779    0.09463933560380   -1.86419552278612
O           2.21434581953416   -0.50310122588791    1.06351817570438
H           1.72908244365485    0.33445414484867    1.15023851752877
H           1.61987872758221   -1.13485796577410    1.48454893368825
H           2.65787832264898   -0.64674536053096   -0.57373580321539
O          -3.63178185803526   -1.03497074895772    1.51614501835979
H          -2.69090362605068    0.26568659309855    1.37163514297339
H          -3.06732511074891   -1.72805942770285    1.08820347399547
H          -3.68220706255124   -1.27093697693383    2.44504124042921
N           0.94911148458562    2.56812273683053   -1.16667017055497
H           0.66254564792230    2.13924311590602   -0.21496258914312
H           0.32363829941480    3.32983835017754   -1.40619552061942
H           1.90998046635875    2.89190064454540   -1.11933030785187
