    26
        -50.46224024  Gyration_radius:  2.54855879026 Dipole_moment: 4.825
 S           0.33387372741844    0.69512033265267    0.91077831872740
O          -0.26057806319449    1.98048312766790    0.60768002562534
O           0.82509755467655    0.01603226674837   -0.28316178353986
O           1.53859054558105    0.90295785172768    1.87115957580208
O          -0.57466746994292   -0.18799678086093    1.66287380373347
O          -2.23869066073963   -1.44542509672460   -1.93695942229139
H          -2.41545920610561   -1.04149318203212   -2.78768999695604
O           1.35847083968194    2.42576146358789   -1.42793759922660
H           0.61946000946489    2.49337264428297   -0.79170872648167
H           1.44820628174474    1.47133089575738   -1.54618629292289
O          -2.45733938979964    0.49788675702931   -0.09996823040914
H          -2.38023698935061   -0.73947005791702   -1.26605121473992
H          -1.98320817179450    0.17381978498064    0.68406578662300
H          -2.05132936945545    1.35962546638600   -0.24952991611594
O           2.93325749629683    2.74163345113223    0.66897602463751
H           2.14470743074394    1.57550131167441    1.45425759543960
H           2.49824543464463    2.70099237384038   -0.22050722588439
H           2.68132378047126    3.58636851284913    1.04842078954813
O           0.18434152618207   -2.31348368507221   -1.27968075168162
H           0.56997393832299   -1.43627585330921   -1.04818869805540
H          -0.14687686434036   -2.67471161762391    0.07982722373307
H          -0.69599697305346   -2.09441427680873   -1.66642201675895
N          -0.42066209921053   -2.70689972620416    1.16310256943484
H           0.28430730137807   -3.18567713231982    1.71322282377143
H          -1.33239721059690   -3.13278320571627    1.29614332908157
H          -0.46241342901681   -1.66225562582145    1.44348401890106
