    26
        -50.46223999  Gyration_radius:  2.54894466073 Dipole_moment: 4.826
 S           1.09783772356734    0.45386305025576    0.10542207018872
O           1.05033467942302    1.68021373039669   -0.66352739276893
O          -0.14189693677972    0.20761663482796    0.83348512445089
O           1.44951517287948   -0.71823619826736   -0.71527057904946
O           2.25083635540835    0.54615668831682    1.14413100728221
O          -2.56179377483802   -1.14248499584122   -1.73105580779379
H          -3.29802090330138   -0.54803206650674   -1.88176140049299
O          -0.52763556412971    2.89209964057181    1.06926801253100
H          -0.01535922939996    2.67601637971279    0.26516694243480
H          -0.87753953526485    2.03176409206598    1.33415514429229
O           1.79086831089385    2.81502705642734    2.33205157587354
H           0.86672521698350    2.96788997180782    2.00823892049470
H           2.11836430146513    1.38244602722846    1.67018921962135
H           2.33523205359056    3.47853037857827    1.90247409735552
O          -0.34430765992145    0.16902746996474   -2.48055086808895
H          -1.76228774211862   -0.67542384916372   -2.06440219013216
H          -0.20446959911095    1.08542125418060   -2.21520019859946
H           0.39335998117560   -0.29184537037380   -2.04684738495891
O          -1.78755467925238   -1.81927860263313    0.71863510658150
H          -1.28272617473973   -0.99646173468066    0.91881986191518
H          -2.23490405594813   -1.62401191986932   -0.13818945762665
H          -0.63341469507747   -2.58542381947647    0.30722931596752
N           0.35041555994027   -2.95412536547633   -0.07463063017308
H           0.87959778911497   -2.04417387284087   -0.32679317640904
H           0.22864661761906   -3.52035115546354   -0.90824775421366
H           0.86017679783744   -3.46622343370336    0.63721045134191
