    26
        -50.46224028  Gyration_radius:  2.54849458074 Dipole_moment: 4.822
 S           0.33965395466425   -0.85675664515882    0.75849411722267
O          -0.31124961167211   -0.62282161127340   -0.52588748979743
O           1.52906256932230    0.00271489415586    0.89179363077482
O          -0.57587996488727   -0.72061111804539    1.87241954559363
O           0.91697380860764   -2.30021457797831    0.74507389559730
O          -0.61259727912709    3.12878673721145   -0.82696080327768
H          -1.52603585621919    3.41809642675258   -0.81972756609243
O          -2.64284652055849   -1.59544489662990    0.48466985608082
H          -2.21786670537041   -1.27656432792763   -0.32194194462379
H          -2.09193572971073   -1.19792476646132    1.18748800952479
O          -0.15137342570929    1.96935985610679    1.54830817223858
H           0.63781211991604    1.41619627063877    1.42313581368556
H          -0.43680832391669    2.76008858028868    0.06836734554992
H          -0.78768016766433    1.34640846845759    1.91827879790032
O           0.21078820441653    1.13996541397581   -2.38366120171975
H          -0.15710398016782    1.94880341459176   -1.95587658283680
H           1.56390468427308    1.10002782263884   -1.87767143077135
H          -0.11721475045938    0.40024304149571   -1.82065201885026
O          -1.21663799012230   -3.78391873875143    0.87625478571283
H          -1.89303169233310   -3.09147879803958    0.66373488281314
H           0.14730459205488   -2.93354942905235    0.75555121715405
H          -1.35151428842328   -4.01141570603637    1.79882450539099
N           2.50096693274772    0.98110146215164   -1.27988249282003
H           2.15625497245014    0.53135284124849   -0.35754118394766
H           2.92432811031580    1.88236066704087   -1.08273608216353
H           3.16272633765605    0.36519472875155   -1.73985576850083
