    26
        -50.45652769  Gyration_radius:  2.46338067326 Dipole_moment: 4.625
 S          -1.39925096267831   -1.13339326892600    0.51951679363883
O          -1.14680365519619   -0.24224939855366   -0.71764792205343
O          -0.11506756449790   -1.39060533982493    1.15520372125029
O          -2.24625440794384   -0.26677663582168    1.44314468926417
O          -2.12457757768810   -2.28623522822493    0.11750275234424
O           2.00355164163939   -1.45733746186038   -2.13819848995968
H           1.82974672186241   -1.54042781799009   -3.07702749845249
O           1.56788026232598    0.48502452142119    1.77862758532405
H           0.98251743670054   -0.29664030557153    1.63047431078947
H           2.22975331604467    0.21619233506658    2.41730442959378
O          -0.87040097775237    1.77798731598122    1.92184295412570
H           0.05275043178298    1.48501118142176    2.00560865079452
H          -0.92573765407387    2.26948585150825    1.05576207170423
H          -1.71386747643295    0.58903803333101    1.70864906255230
O           0.34281735892710   -3.13478780461288   -0.84008040219683
H           0.41032771094598   -2.72465587170800    0.03463541657707
H          -0.60709793751244   -3.22879222047416   -0.97375491150142
H           1.45697889699352   -2.14348241852079   -1.69711217505157
O           1.17884051259082    0.73855692225490   -0.92018450313965
H           1.54399256745478    0.73866295870452   -0.01868834231974
H           1.60678175022678   -0.01310998403523   -1.39944727592770
H          -0.20632772792910    0.17469008760681   -0.77471469582146
N          -0.96185551032574    2.81259699149373   -0.53960418927350
H          -1.13930547036657    3.78276974814935   -0.76505091055098
H          -1.67621996887376    2.24483967756036   -0.97932046047874
H          -0.07317171627239    2.54363815164761   -0.94744065125618
