    26
        -50.45652753  Gyration_radius:  2.4634239503 Dipole_moment: 4.623
 S           0.37948196963058   -0.17384795210183    1.82756164758717
O          -0.80816141364095   -0.59987635949821    0.93506434784688
O           0.55312889416845   -1.13751325580896    2.85606863770505
O           1.53326953995469    0.03784844066341    0.96547610581032
O          -0.05190840364714    1.16293864519564    2.41786139209369
O           0.66089972527200   -2.75491513967112   -1.63973517892496
H           0.08318509023935   -3.51872196688416   -1.67634338985825
O           1.47237762033996    1.53672687108404   -1.15339883733761
H           1.61861193445709    0.98787083333834   -0.34537842802134
H           2.33818555319671    1.80542192307398   -1.46402987120473
O          -0.45685529359057    2.68141980549016    0.46000616913896
H           0.22505335658968    2.47707863901466   -0.20210340266642
H          -1.31216846440788    2.32151144733928    0.09450204330228
H          -0.20425447124020    1.85313664920388    1.65177380681573
O          -0.45858406408231   -0.36200015990510   -1.56158994888694
H          -0.66532443190939   -0.47207336221087   -0.07721568572700
H           0.24331585502497    0.30291859013217   -1.66718227603846
H          -0.04241760109051   -1.24301446632302   -1.73027808389222
O           1.72359039444067   -2.64159319271450    0.83302182860664
H           1.10610899955255   -2.79069455141971   -0.76536426558968
H           1.99972011985341   -1.71370187491543    0.80720502076324
H           1.25408275441514   -2.71504540324263    1.67157858437603
N          -2.61884925063599    1.42637381252460   -0.48241955685572
H          -2.84408723166416    0.79741846932281    0.27895575628307
H          -2.25637553681764    0.85952755358921   -1.24120375767960
H          -3.47202565445494    1.87280600491849   -0.79283266765753
