    26
        -50.45652762  Gyration_radius:  2.46330782177 Dipole_moment: 4.625
 S          -0.77603302044261    1.02788975196214    1.36016677569435
O          -0.52859227408085   -0.36775636321977    1.69228534127091
O          -0.69568500336713    1.17185610038834   -0.17651296252390
O          -2.01740075618811    1.55242282144731    1.80821972591889
O           0.37865419045765    1.87499089435728    1.88034918066593
O          -2.21215377299310   -1.89140237491748   -1.49494752171937
H          -2.81577030034586   -1.59570592588098   -2.17803033846940
O           1.51896983463216   -1.69961251497098    0.81323178326642
H           1.70510338786953   -2.49753393828943    1.31020474794124
H           0.73715798693123   -1.27434890337343    1.24170161362572
O           0.20933816090748   -0.83319523907402   -1.43043069319265
H           0.73813744085402   -1.33162378786442   -0.78391615241594
H          -0.64126845931643   -1.32514455274473   -1.54033809578071
H          -0.29904630079961    0.36135046712047   -0.67375375379388
O          -3.03675154340923   -0.84678534695820    0.84720319232707
H          -2.20947830103823   -0.97147602821272    1.33494578271468
H          -3.26702851758563    0.07253310329397    1.02355055153220
H          -2.58718740013884   -1.57653097941005   -0.64384093919391
O           2.45971114037432    0.89813767736209    0.87126328432495
H           2.38557431138882    1.19543017258853   -0.07775899014065
H           1.28171329891418    1.49732254983674    1.52232776611632
H           2.34296517175001   -0.06691317395777    0.86011959123074
N           1.95274933678326    1.60489152214191   -1.65504143607175
H           1.17432201270304    2.24284786738118   -1.54046619706885
H           1.58565665572429    0.75789329566304   -2.07479991894341
H           2.61634273039879    2.02046289534144   -2.29573235729563
