    26
        -50.45652758  Gyration_radius:  2.46335649592 Dipole_moment: 4.624
 S           0.91036940178812    1.33552052856906   -0.94893944952046
O           0.83869789800039    1.52901209516245    0.49213771644801
O           0.55667471479207   -0.13884763851360   -1.24838074653984
O          -0.20407840443049    2.13418355546353   -1.61355580928515
O           2.16261795415582    1.63999167438680   -1.54556493164371
O           2.07196294054857   -2.05505195806952    1.48180880226012
H           2.52092452356190   -2.78212826514918    1.04791868600011
O          -1.21158974050458    0.83146220335153    1.92333607581547
H          -1.24514486424370    1.25133155020673    2.78405891858705
H          -0.40605638686537    1.17886511252351    1.46947392889882
O          -2.33881410927467    1.35782120778022   -0.54433218170039
H          -1.12079776294579    1.88102876849610   -1.18691337857735
H          -2.45289065531941    0.45284093301121   -0.94774239208566
H          -2.14636971258717    1.20951654503369    0.39700143363632
O           3.19422880218243    0.23767495095914    0.62125546329234
H           2.47473732145468    0.83275394920732    0.87842904209182
H           2.55938036484511   -1.24175971655430    1.22668064895564
H           3.37913625445975    0.48670152741778   -0.29133419067222
O          -0.38097749531348   -1.46882369679532    0.69139444322126
H          -0.74771113564796   -0.81219938891112    1.30813230039206
H           0.14930657726356   -0.66227171637076   -0.45981329622558
H           0.47570899309048   -1.77476146943986    1.07915492974112
N          -2.33309542029714   -1.11106331100111   -1.56506659914588
H          -3.13009752133336   -1.58233041486209   -1.97282062742403
H          -1.97114009386086   -1.68324778886334   -0.81009415192165
H          -1.60498246478983   -1.04621923764815   -2.26622463636396
