    26
        -50.45652771  Gyration_radius:  2.46344714204 Dipole_moment: 4.625
 S          -1.40491773088695    1.23626150479688    0.10779427418053
O          -1.99903905386474    2.33021378987453   -0.57559807182181
O          -2.42898531725898    0.54671052772086    1.00081027169374
O          -1.00652421038244    0.15633664956112   -0.92346306555779
O          -0.22525104284961    1.55676134751749    0.89839145781730
O           2.38628194179022    1.05326664991873   -1.97678703992225
H           2.36832350291885    0.99356442767833   -2.93313216235302
O           1.24244841856659   -0.24024606966719    2.06256760531751
H           1.80822890187151    0.10842568503502    2.75294860029301
H           0.72764192656630    0.52314935999841    1.70515030152976
O          -1.25015744329397   -1.43227962391486    1.99938466539279
H          -0.33809108886109   -1.15335232743549    2.18753790343322
H          -1.98870888425232   -0.27028092089772    1.47526544496174
H          -1.19331852226878   -2.05182292399214    1.21985423127668
O           0.62770158882821    2.95433092646442   -1.23509163758347
H          -0.28349548769617    3.05088551043859   -1.53417338660323
H           0.53613424962240    2.68470662116683   -0.30945494525628
H           1.81159671395149    1.81318363884782   -1.73954842229539
O           1.26968398675097   -0.90313509379905   -0.59424542359895
H           1.80521097198511   -0.24705151615685   -1.10470980883450
H           1.48811615948555   -0.77157181970278    0.34437502049678
H          -0.09099667968414   -0.28815659736668   -0.76309725411380
N          -1.00517228853717   -2.83744778995264   -0.25959033010578
H          -1.19167189687350   -3.82658470364653   -0.36148288145268
H          -0.05156336532793   -2.65658911488171   -0.55346987047656
H          -1.61347536029992   -2.32927815760605   -0.89023548642386
