    26
        -50.45652777  Gyration_radius:  2.46336075904 Dipole_moment: 4.624
 S           0.77259405817938    1.66594251589954   -0.37364903833093
O           1.52472036942735    1.43401462442353   -1.67840042902435
O          -0.65766879068500    1.56664271700770   -0.62618173089962
O           1.18070918098450    0.47385111773861    0.52131315994911
O           1.20322931037585    2.87219227054583    0.23962342646361
O          -1.61643046759509    0.03001236243231    2.84484413130395
H          -1.20690304497863   -0.05813279972479    3.70680455305575
O          -1.80565549898692   -0.59199673239174   -1.49899528080925
H          -2.67677870029934   -0.44560086133416   -1.87046647691509
H          -1.46575821085520    0.29109826900327   -1.21599895632199
O          -1.00128678705724    2.47015901379295    1.88349151849244
H          -0.12893985115534    2.87902484689830    1.85352076340318
H          -1.20060006542271    2.29032562773388    0.95297665169924
H          -1.45781429624740    0.95628685538288    2.56024056038847
O           0.74922985442991   -0.79560174566723   -2.53330610658637
H           1.21996636661631    0.53309792220255   -2.10474572780953
H           1.20548277864397   -1.42441612320486   -1.90793392773068
H          -0.20009528000029   -0.86084819642200   -2.33448648108611
O          -0.57133673744263   -1.32762516160845    0.83216733360568
H          -1.04211948100201   -0.93298134865635    1.60699559890298
H          -1.17080478742122   -1.24630097375583    0.07053782268162
H           0.47093210511010   -0.26682430810424    0.61732973397395
N           1.87796766642211   -2.28344950250335   -0.62280205619256
H           2.39778481169835   -3.13858505331946   -0.77149398600037
H           1.11394711917888   -2.47681716708327    0.01541040768254
H           2.48562836808623   -1.61346817930093   -0.16679545391592
