    26
        -50.45652772  Gyration_radius:  2.4634780357 Dipole_moment: 4.626
 S          -0.37542555970379    0.72775103563573    1.68595300255103
O          -0.81743982001680    1.52063919203808    0.54790616215449
O          -0.07220415494861   -0.70083183593536    1.18035499257350
O           0.97230779739095    1.25343217048499    2.16440270883082
O          -1.29042054249877    0.64959071469031    2.76921536747941
O          -2.64861593833058   -1.38269304370265   -1.33647520002024
H          -2.97470521778064   -2.25819836719083   -1.12287520970313
O           0.49686250689172    1.66287237749675   -1.68623669314629
H          -0.05235217166618    1.71933211293780   -0.86724056628500
H           0.25115574602102    2.40951099060724   -2.23436576911169
O          -3.16502302398086    0.22591519217355    0.76172399147703
H          -2.97958469608106    0.04759111725926    1.69066920628477
H          -2.53851801584670    0.92894549078863    0.53545104894351
H          -2.93246559267742   -0.79828122553470   -0.60031064012837
O           2.48985427476356    1.17721007592058    0.16568061196382
H           1.64305641447770    1.27923680527974    1.36712450709026
H           2.66047018302011    0.19877822481202    0.07478608136798
H           1.95460998580025    1.42897384239601   -0.60580711894822
O          -0.03340116928840   -1.00050957905359   -1.33354939487983
H          -0.99673422800919   -1.17781638330767   -1.46937505917076
H           0.14201318138413   -0.11726782078454   -1.70118207378395
H          -0.03082716782876   -0.80509854606562    0.15610184330487
N           2.63224029266598   -1.48328616808604   -0.03219337796603
H           2.22016481906709   -1.78091368737155    0.84393524455511
H           3.47647261716607   -2.01862642531425   -0.18789862356607
H           1.96850945997625   -1.70625626020098   -0.76579503181487
