    26
        -50.45652770  Gyration_radius:  2.46336435198 Dipole_moment: 4.624
 S           1.86339880635452   -0.18941733668840   -0.04141667383493
O           2.95388092888903   -0.42157405634640   -0.92102666983004
O           2.33262957794240    0.55273292434931    1.20385910187196
O           0.87145956784365    0.78416004431332   -0.71706220309069
O           1.12154463806014   -1.37477585074001    0.36330247948476
O          -1.40915490163584   -1.35474817320411   -2.62376346593841
H          -1.46873277144587   -0.94223323335246   -3.48673406379963
O          -1.06780963751984   -1.28044624799630    1.75507228494065
H          -0.22032107632408   -1.43157449902930    1.27080793222313
H          -1.29946826978169   -2.11238225158554    2.17028377456029
O           1.15421546405269   -2.08454874848125   -2.23085548394911
H           1.10823438253772   -2.18324647667115   -1.26855032065135
H          -0.49117170012714   -1.69432845380492   -2.54586943344172
H           1.93911670615287   -1.54141608545492   -2.36546892672402
O          -1.58135819161961    0.19830389451057   -0.49164791374851
H          -1.65677416886105   -0.39344266066086   -1.28015318152386
H          -1.64465319301061   -0.37293529458376    0.29308907841675
H          -0.12494474991149    0.55190146979820   -0.59428197836432
O           0.26590270574534    1.00450064556412    2.55655655394469
H          -0.30727711511779    0.22440098185343    2.46814732760206
H           1.52000455279812    0.74099407527622    1.82822971074846
H          -0.17060341518288    1.72836655149136    2.02750940677831
N          -0.83638197073398    2.76755517762680    0.87832405369892
H          -1.52387126979038    2.22151672626978    0.37074551975151
H          -0.07198681627305    2.95272372296957    0.23999544057062
H          -1.25587807302275    3.64991316457475    1.14090767031605
