    26
        -50.45059453  Gyration_radius:  2.46318384783 Dipole_moment: 4.137
 S           0.77361801991172    1.13618412078476    1.45399827723523
O           1.35249134692652    0.75107554788559    0.18104744847387
O           0.17479188521935   -0.13926806474479    2.10884868173197
O           1.65218810866016    1.76514339888825    2.36706007458556
O          -0.46707555211151    2.00075164759076    1.17449064537907
O          -1.40373818239006   -0.65623095214040   -1.63946668476488
H          -1.79769838977777   -1.12289619505676   -2.37700081467582
O           1.52047570861540    2.44838208460860   -1.88233700270213
H           2.00531406624310    3.22851494084116   -1.60877560244562
H           1.66191789745430    1.77596516991821   -1.18890874878871
O          -1.03670838480745    2.00419980189626   -1.26344054434338
H          -0.18423616886365    2.26726981807161   -1.67533604477887
H          -1.18266507524061    1.07203934919522   -1.52338413939821
H          -0.70883568501985    2.02228415545478    0.15707271362201
O          -2.09116543992233   -0.37385913930950    0.92483861478768
H          -1.92884621423713   -0.55582599546560   -0.02764219806919
H          -0.71963603733547   -0.29271247835067    1.67378676871554
H          -2.45449424073205    0.51470060359687    0.97567565182571
O           0.92332079563555   -1.58936074331831   -1.11467298058045
H          -0.48131096883860   -1.05405157614238   -1.50503121719219
H           1.28425137503933   -0.77478714665040   -0.72522638020284
H           0.82915194492250   -2.21195067690890   -0.35644642628278
N           0.60062701570232   -2.98435968502292    1.20544559384183
H           0.64980640883339   -2.17120623406331    1.81121699747356
H           1.32396344255796   -3.63194656597066    1.49139412300362
H          -0.29550766644598   -3.42805519558941    1.36279317354958
