    26
        -50.45652760  Gyration_radius:  2.4636386408 Dipole_moment: 4.624
 S           1.84204745525000    0.17850567869108    0.29657535353748
O           0.80374904185554   -0.91402249463819    0.63815464735359
O           1.92740487488885    1.02673430333754    1.55952109579220
O           3.09202377186309   -0.44027162937532    0.02924050473195
O           1.29977723966837    0.98900061625699   -0.78424182780578
O          -0.62726539907099   -1.90522145346099   -2.58602104814979
H          -0.61967852473654   -2.86345307733447   -2.57546408495839
O          -1.06975255339747    2.04772296232217   -0.72045701152771
H          -0.13886979660090    1.73489957081115   -0.82579625028283
H          -1.19257630770552    2.76242998333987   -1.34691116547379
O          -0.39056461944628    1.90733717164269    1.95461625951433
H          -0.86781548398947    1.09270641631017    2.27551501180067
H           0.99750215379820    1.45193870873397    1.76076221545837
H          -0.76775473139084    2.11300480286456    1.08254007443316
O           1.92358109373564   -1.05554343515634   -2.41651407541798
H           0.31306342133599   -1.62459902004382   -2.61925593672269
H           1.73340101076564   -0.14790757348713   -2.13725383262727
H           2.59312740721335   -1.35001903531290   -1.78875932091099
O          -1.47879341133460   -0.64427340178390   -0.42462593642304
H          -1.29395399234863   -1.11393452122604   -1.27492996824517
H          -0.12968226332108   -0.77862448853875    0.22363389496821
H          -1.55933656612622    0.30074812799131   -0.63996062570640
N          -1.52583910676478   -0.43116548951896    2.57291478955600
H          -0.71878599592530   -1.03167430714690    2.69139785663113
H          -1.98326777256679   -0.71142119915979    1.71230186512694
H          -2.16174093564717   -0.59289720608970    3.34301751534878
