    26
        -50.45652760  Gyration_radius:  2.46336595011 Dipole_moment: 4.619
 S           1.81046901638534   -0.25753940031181    0.40851313098311
O           2.07094779044244    0.72600819297403    1.54277317414596
O           1.54311930791788    0.48681441064290   -0.81361368838988
O           2.86072320975606   -1.20996200894292    0.32701087237304
O           0.50758529816743   -0.98014382327170    0.81905781008933
O          -1.01535430544579   -2.06101211317294   -2.32938009761997
H          -1.26130613637454   -2.97447301234279   -2.17569211594417
O          -0.45989151537978    2.11657172742953   -1.08260958015737
H           0.35773457865487    1.56268369536594   -1.07058116170709
H          -0.36647092147262    2.72934046506778   -1.81344233681232
O           0.05808466284561    2.22474604021014    1.63034843319437
H          -0.21836365425463    2.38266724319724    0.71185535056551
H          -0.63012527768912    1.62045372485120    2.02483930303684
H           1.28140168815104    1.40253550197476    1.60971799248347
O          -1.57976457206919   -0.29907880903819   -0.44186200668826
H          -1.39763297862582    0.58923421887179   -0.79364365628577
H          -1.49546972644458   -0.92745773260423   -1.20072045531647
H          -0.34037243393087   -0.67439552272835    0.31987173399428
O           1.66175939648830   -1.87755575657983   -2.08991110444022
H           2.20570889417155   -2.23191872600340   -1.37746701748549
H          -0.03367200180443   -2.03909715803605   -2.33127238146125
H           1.70913399553889   -0.91931977209148   -1.95752404334433
N          -1.67883749985691    0.38188737092391    2.48290024762866
H          -2.16526390920902    0.10007881478189    1.63889321320866
H          -2.36001920048296    0.50928711764387    3.21999445925809
H          -1.06412371548473   -0.38035468880337    2.74194394467198
