    26
        -50.45652774  Gyration_radius:  2.4634118647 Dipole_moment: 4.626
 S           1.33205114350400   -0.14098884554484    1.31072269520894
O           0.74634495775830    0.59980967130339    2.50639675765934
O           2.43897336389906   -0.93485799115093    1.71232470840855
O           0.19140971085860   -1.07148117688979    0.83978618100870
O           1.59917045895740    0.81401030316439    0.24491913346057
O           0.81748076768843   -1.60947081481031   -2.72940773270456
H           0.72570867006956   -2.55526078128527   -2.85398940835296
O          -0.25127735223742    2.23538809172987   -0.89283809048569
H           0.53224735613719    1.78389762177450   -0.49563022565671
H           0.08228238972535    2.99634836398874   -1.37031033158060
O          -1.27206803366675    1.81653080048460    1.64130615122053
H          -1.04982916693933    2.13643571326878    0.75063648776721
H          -1.92132867918443    1.07056426835658    1.51175176068926
H          -0.08166159515574    1.15625955058073    2.20426048547570
O          -1.00840124952194   -0.36832013826390   -1.27624332920586
H          -0.40871050109466   -0.80602908570544   -1.92943267918085
H          -0.30861660307202   -0.76055508392650   -0.00574452510464
H          -0.85859312184990    0.58923533517283   -1.35836066928522
O           2.85975247043742   -1.19542753268411   -1.02225450649233
H           3.00676395374785   -1.63323437422794   -0.17619128340338
H           1.62291429660279   -1.48271424830084   -2.18229675789609
H           2.63000315392669   -0.28842540080930   -0.77227596726473
N          -2.76961017279839   -0.34245179460342    1.15848976309197
H          -2.24253301561959   -1.07164416742924    1.62377108329196
H          -2.66618368082615   -0.48911310871796    0.16037963868005
H          -3.74628951133742   -0.44850519544505    1.40023065063030
