    26
        -50.45652771  Gyration_radius:  2.46345866763 Dipole_moment: 4.625
 S           1.38137892979799   -1.05652758116857   -0.69862165401798
O          -0.12882726858946   -0.93218937487098   -1.00211430400346
O           1.61568108022186   -0.51854221919272    0.63370988483471
O           1.78183041418600   -2.40510721872844   -0.89240025606414
O           2.04914463607657   -0.14998344301754   -1.72523839622561
O          -1.80016629906237   -1.65200079923565    2.17691228828103
H          -2.49679912161025   -2.27012275467219    1.95083214595276
O           0.77914141472704    1.81805478920941    1.39509590683226
H           1.22043904720517    2.15253573111319    2.17715591071534
H           1.18455871165708    0.94011471842900    1.19408672096024
O           0.55689220577960   -2.80655581780673    1.57009452124319
H          -0.95407955402644   -2.13026022401644    2.03702429921779
H           0.79106066705638   -3.24994876708725    0.74693015540857
H           1.09011508215129   -1.99824828168918    1.55293871212374
O           1.11439639730890    2.14620204914031   -1.32865878956559
H           0.18957707927131    2.05641706216061   -1.69091732769236
H           1.01721106217290    2.25028469143910   -0.36701333763728
H           1.72646615532073    0.83186657919108   -1.59051937217743
O          -1.47377342394443    0.46393808201134    0.62683464202582
H          -0.66067885177635   -0.33826345111089   -0.34942729713274
H          -1.68460188086178   -0.24761179003327    1.28027098379477
H          -0.83369608511533    1.05685570905935    1.05672737964308
N          -1.37671628512415    1.62616163703809   -2.14240567925007
H          -1.93396410794983    2.21424478742993   -2.74832936814308
H          -1.88663949623373    1.47739045331674   -1.27852566972943
H          -1.26795052859286    0.72129544307080   -2.58444208939509
