    26
        -50.45652781  Gyration_radius:  2.46341083431 Dipole_moment: 4.624
 S           0.78950363876039    1.69915836891616    0.00223611332467
O           0.65684567954637    0.58297674741548   -1.05841413943962
O           0.75201495301704    2.96087681759104   -0.64836067651507
O          -0.23795876086746    1.48279948395903    1.01061664251646
O           2.15823435232441    1.46402645911747    0.62921718832024
O          -2.94810273851520    0.04255231805584   -1.41851189895432
H          -3.09932742462734    0.02506218826041   -2.36470287011064
O          -0.60950453788698   -0.79290550633171    2.20315280311487
H          -1.11940485959442   -0.72880438888053    3.01194334911655
H          -0.52188112170530    0.12500068436011    1.84915185218158
O           2.08562862912498   -0.85335745090488    1.59294818074988
H           2.12644261861384   -1.41772756626013    0.77174972195562
H           2.18196555407265    0.52480542831146    1.08015142173937
H           1.19490493314841   -0.97963987558924    1.96126999937339
O          -0.89719152863548   -1.32668672970912   -0.46714561015544
H           0.04473110605057   -0.20291278967434   -0.79520597594911
H          -0.95882382067162   -1.32526147121778    0.50360229193477
H          -1.73856798254477   -0.93213347440463   -0.80508006644248
O          -1.98071626849492    2.47466617898028   -0.78161584510146
H          -1.26105872841946    2.94501610246821   -1.21748245745280
H          -2.68808422334921    0.96391584541071   -1.20019845075217
H          -1.60829922224548    2.23734213214600    0.08030472164346
N           1.97639871590872   -2.16546517609359   -0.73191876729233
H           2.51685468632374   -2.98636308288068   -0.97189701298749
H           2.19341533380330   -1.43261052231429   -1.39665724672609
H           0.99198100689625   -2.38433072072815   -0.83915326809186
