    26
        -50.45652766  Gyration_radius:  2.46346780275 Dipole_moment: 4.622
 S           1.72066238884045    0.74030938620319   -0.04044140410360
O           1.08008218275667   -0.43627244657371    0.72999203861256
O           3.07743614593636    0.42621488470295   -0.31839267851906
O           0.89086205862659    1.01806108194312   -1.20380831996316
O           1.63353157409074    1.91621633274752    0.92464944016969
O          -0.20298656359625   -2.68197788793275   -1.86249855277782
H           0.09040015939041   -3.55522184590859   -1.59844038175230
O          -1.67666161265375    1.37932337836746   -1.07029632672154
H          -0.70402986352993    1.30854533876638   -1.22657593863454
H          -2.04851797671227    1.81143211270815   -1.84054280675458
O          -0.80977145794883    2.22714312335336    1.41333900954803
H           0.63504506607332    2.11979731900527    1.14196710817842
H          -1.28857471433263    2.05669538253849    0.58464280090123
H          -1.00052161247354    1.44863766850802    2.00657724198383
O           1.98521660144138   -1.17554184791512   -2.30999134891216
H           2.75226110923971   -1.08106913435263   -1.73405892882988
H           0.60680655495992   -2.18474707366824   -2.10968367749698
H           1.55262599580626   -0.31077298100082   -2.25653520184141
O          -1.24566390154736   -1.10933042051510   -0.01131213093344
H          -1.61756742447302   -0.32775230860107   -0.45499047212385
H          -0.98671586304284   -1.74356074787963   -0.72432206544359
H           0.12267952891910   -0.68241249227407    0.43960923134626
N          -1.15187328128559   -0.03506591875967    2.79366685105368
H          -0.19599865342319   -0.33674628922266    2.93956119542197
H          -1.56593656707860   -0.66953415779973    2.11960529086041
H          -1.65278988398325   -0.12237041643684    3.66827999673149
