    26
        -50.46515673  Gyration_radius:  2.51558055257 Dipole_moment: 4.769
 S          -0.20669032376899   -1.24482524401624    0.02772721357268
O           0.18699644160077   -1.33145471402804    1.41409147916248
O           0.17661959016634   -2.57305101026272   -0.66975334030980
O          -1.65065723492188   -1.04213227416790   -0.15199066823165
O           0.50782315317317   -0.15532964391122   -0.65816701473359
O           2.00316366787104    2.04080186379465    2.22966765105514
H           2.57759430520208    2.12991367489034    2.99157763438317
O          -0.33913846317430    0.13461597250298   -3.11970511666763
H           0.41972223647811    0.12393153486278   -3.70561927788643
H           0.02160141496890    0.07050423689346   -2.20507790427814
O          -1.51950199510738   -2.23960539111662   -2.58781265915632
H          -2.10385609104597   -1.93450043786556   -1.88044790367251
H          -1.18022040014837   -1.41956116690180   -3.00363521459403
H          -0.39372392147627   -2.61539195215105   -1.49111467185893
O          -0.43419573405668    1.03551494592215    2.49545894916691
H           0.44530602679301    1.48880324855266    2.49278090334281
H          -1.10252467097498    1.44113395590075    1.25051823407272
H          -0.24102714785770    0.09679578346112    2.28403928739956
O           2.63639575927728   -0.19826580291438    0.94921601721716
H           2.16777140663959   -0.85823105244034    1.47677870570627
H           2.05202667750897   -0.09156235400843    0.17758164576439
H           2.34704544623611    1.26853561502129    1.71441267091170
N          -1.51959458977438    1.50391834301928    0.22627939961491
H          -1.75668508434507    0.48169439456088    0.00852577410177
H          -0.77252380766014    1.76704764460173   -0.41490962156497
H          -2.32172669155030    2.12069982982702    0.14957782756313
