    26
        -50.46515671  Gyration_radius:  2.51563940054 Dipole_moment: 4.771
 S           0.85665558321770    0.36757379493058    0.85092303997895
O           1.32554551931141    1.58942276058226    1.67853761438026
O           1.95041402632316   -0.05535658486713    0.00869261843991
O           0.41579780240060   -0.67116609394224    1.79162340404625
O          -0.30015254282148    0.78957014130885    0.04373359434123
O           0.41303927869891   -0.61831465223653   -3.54939786845243
H           0.96228302481689   -0.64978059813553   -4.33410285200293
O          -2.35349693517646    1.37549249353111    1.56029791438609
H          -2.67118267894839    2.24705706799641    1.31797668792809
H          -1.61518952088947    1.17233654218980    0.94029056871630
O           1.00708595162673   -2.10061803377865   -1.43493418062510
H          -0.23936950652658   -2.08983727009926   -0.65622228990107
H           0.79631841161149   -1.65442327685207   -2.29258732108831
H           1.52948926134513   -1.44494045367026   -0.92466624524522
O          -0.47293671315824    1.24714553866250    3.49940796377412
H          -0.25089542699185    0.31147366667374    3.39899522861349
H           0.70228068319632    1.63496002188848    2.46034579434976
H          -1.29574318462696    1.36622690179897    2.98044467616479
O           1.12838279825429    1.48801228605697   -2.09844106376049
H           0.43503324998738    1.43420293189279   -1.41683045959584
H           1.90398754903195    1.14546503182471   -1.63512651036276
H           0.62243585885833    0.23907866812902   -3.10086068294137
N          -1.06184998872265   -1.86878080657521    0.05228090926688
H          -0.53762319254553   -1.48645446688364    0.90512058863425
H          -1.63887276672715   -2.67424797822761    0.27129490298616
H          -1.61143652156679   -1.09409763217724   -0.31679600203451
