    26
        -50.46515669  Gyration_radius:  2.51594625974 Dipole_moment: 4.762
 S           0.07787233075361    0.66948794275289    1.06549306737328
O           1.01735296566731    0.98699142637473    2.25453178504325
O          -0.20610593464581    1.90320773985830    0.37133343376303
O           0.77391810476198   -0.28424938171389    0.18584446230042
O          -1.12414263542231    0.01760086636707    1.60271617604527
O           0.24914878141717    1.12678379137734   -3.44030372130718
H           0.36938357528828    1.82842258234706   -4.08182572718855
O           1.12689767532607   -2.58935813947196    1.37834105327364
H           2.05370741276610   -2.82617609158812    1.31351569501809
H           1.02582724484574   -1.74506849294400    0.88066605041166
O          -1.75146838049821    1.22879753625094   -1.70545355386937
H          -1.83793077056623   -0.15134859884051   -1.20725789698822
H          -1.28466911301311    1.65024619780486   -0.95199704883047
H          -1.09221325932069    1.21234912035349   -2.44310183561347
O           0.37368061627411   -1.15537352723057    3.54343889186777
H           0.68156716896172   -1.84957706991279    2.92400407292140
H           0.91477174365628    0.21736794195278    2.88638904064809
H          -0.52219812187912   -0.94138249773648    3.24946510283396
O           1.86999005293802    1.57380833629502   -1.38413333188478
H           0.95024465863484    1.25796686234934   -2.75385436452846
H           1.36629822490090    2.22904870326177   -0.88374346680206
H           1.70106857219099    0.75349641642866   -0.88734917110316
N          -1.73641407574220   -1.09681672643538   -0.63902040380407
H          -0.85369711322239   -1.53745475381912   -0.89419300168214
H          -2.52330345805910   -1.72741870009838   -0.75216482272296
H          -1.61958627573299   -0.75135150404354    0.36865950489275
