    26
        -50.45059455  Gyration_radius:  2.46319838205 Dipole_moment: 4.141
 S           1.55982374624046    0.77476253308425    0.98478994449430
O           2.33449303549777    0.29211988574435   -0.25296214798777
O           0.34353354702686    1.42262958052476    0.53259711508486
O           1.15858029554296   -0.55090813005205    1.68893479038886
O           2.38085363130570    1.53623922144830    1.84913850071009
O          -1.16256997035983   -0.98464031969059   -1.66313809324716
H          -1.87159668899935   -1.32220374903988   -2.21116290540954
O           0.29406042180731    3.03101065385663   -1.60661481410822
H           0.92886273112441    3.73813308092478   -1.48231804905048
H           0.18626309828903    2.59869901244348   -0.73794452494053
O          -2.10155464040431    0.26774375920910    0.36448043712389
H          -1.34019664965360    0.85900831869664    0.49158699893843
H          -1.60130318666839   -0.48087534287826   -0.90102340185469
H          -2.07406481513375   -0.34904354405901    1.13277588172662
O           0.96744838943259    0.55367481218099   -2.33365787441559
H           0.70141251718105    1.49863503513216   -2.29030753646601
H           1.77989693155858    0.40840172810274   -1.13232084367753
H           0.14602156305200    0.03842101519560   -2.20087578426704
O           0.80204755847638   -2.15440575645368   -0.28449612773261
H           0.99220121294370   -1.22430271216607    0.95984740054898
H           0.03746371480610   -1.83435702593526   -0.81331219022894
H           1.58609335821325   -2.01176017328673   -0.82209379472535
N          -1.62945509874653   -1.38862589845484    2.47774463687015
H          -0.65927868565690   -1.11489135786384    2.59807843416295
H          -1.64548791861024   -2.38550644911569    2.30217541335615
H          -2.11354812826351   -1.21795818754955    3.35007854470695
