    26
        -50.45059453  Gyration_radius:  2.46321226888 Dipole_moment: 4.141
 S           1.84736100933945    0.54867420034574    0.53781520374084
O           1.33919503339579   -0.49835969410364    1.56722008995043
O           1.34448273526665    0.16719074132023   -0.76800342083978
O           1.13049464240249    1.83901903512875    0.96931223912941
O           3.25233924410742    0.67167345241791    0.64707096664486
O          -2.22170316973772    0.15132855929929   -0.35872934378878
H          -3.11847885609663   -0.02512981544228   -0.64448469435520
O           0.86317451627268    1.96426931389008   -2.69270577477415
H           1.12599478619101    1.19378187404201   -2.15384482003666
H           1.66336431037685    2.46325892720803   -2.86344417524898
O          -1.05805589260242    0.29033336411506    2.04030558901827
H          -1.58488194534632    0.20210964078904    1.21487620009375
H           0.38951140938740   -0.24795160221049    1.78656761877982
H          -0.94794272075113    1.23255161630105    2.19583188105555
O          -0.73432375466688    2.40563760141888   -0.60166578620828
H           0.35689561667687    2.09557701869685    0.31351059932176
H          -0.28218251576865    2.39387811897192   -1.47403572849645
H          -1.34450473588663    1.64045533193244   -0.60657434541470
O          -0.61833485422400   -1.63776049496270   -1.24751456808561
H          -1.64111507032604   -0.57292437451307   -0.76544996894934
H           0.17698317868645   -1.07848220799030   -1.25733756834130
H          -0.46364965018317   -2.28497352099443   -0.52045175428110
N           0.02192807186287   -3.13754091919118    0.93727309899705
H          -0.68273785024968   -3.23892009087853    1.65700732976368
H           0.72757161566483   -2.49754647837920    1.28817340957283
H           0.45861486621031   -4.04014959721270    0.79927771275248
