    26
        -50.44829506  Gyration_radius:  2.45634029944 Dipole_moment: 7.716
 S           0.22278752681305    1.62151072745475    1.29242940740556
O           1.45374648735677    1.54054506533854    0.50962207834160
O           0.26737222018990    0.37436426701785    2.27674375135347
O           0.04495076886649    2.80772161852138    2.04834078320196
O          -0.93543772491423    1.31356775643147    0.40696573002367
O          -0.46709054616168   -1.29075169511191   -1.91716486756147
H          -0.77254855650716   -1.73908452687864   -2.70647709552521
O           1.85650837238291    2.33138849340930   -1.99000191166203
H           1.81828544304902    2.06932265644484   -1.04571076108884
H           1.96974406230963    3.28293120529420   -1.99405335095959
O          -0.57564101809740    1.23422336453280   -2.25184421446703
H           0.31378277547320    1.63061601092035   -2.36839144412920
H          -0.46685002541371   -0.29385689543514   -2.14024386194915
H          -0.82117039311149    1.44962282266759   -1.33057666275621
O           1.31136542992292   -1.05892656995600    0.26011671836675
H           1.63111705503309   -0.13785893879678    0.16884726160004
H           0.69423432939826   -0.27794193883164    1.69618126097728
H           0.88222228984447   -1.26320109782971   -0.58332237567814
O          -1.85701447353070   -0.95245323414273    0.21781568295403
H          -1.42459456702136   -1.55238074714323    0.97269297694402
H          -1.51993428175010    0.06102637450091    0.37639131428353
H          -1.40016697320887   -1.19487294083168   -0.65469596990434
N          -0.71147785031015   -2.37866937393038    2.00918277190440
H           0.21964039761697   -2.53057382683851    1.63482655672178
H          -1.10846489801948   -3.26611221448839    2.28935007427260
H          -0.62536585020788   -1.78015637232055    2.82297614733068
