    26
        -50.44829500  Gyration_radius:  2.45642894475 Dipole_moment: 7.712
 S           1.24036302507221    1.67092907422053    0.13939523967130
O          -0.24373625844898    1.64532119519798    0.00771595953152
O           1.76936700705651    2.98420881602657    0.21343030126282
O           1.49431141848616    0.92495221439211    1.51973126048866
O           1.82275008489512    0.80353633725254   -0.88193783463491
O          -1.68691354526651   -1.48677293704789   -0.71038566782307
H          -2.45484772902865   -1.97872750106785   -1.00290263832630
O           1.03765412647966    0.48420680903212   -3.39555879645401
H           1.43628059000530    0.58483207880033   -2.50518924087862
H           1.35363990545575    1.22811246327883   -3.91032225829333
O          -1.35319539399856    0.56561375361864   -2.18553310627751
H          -1.02385511236863    1.15077764818753   -1.47525657889564
H          -0.59061080801908    0.46368721758486   -2.79367846217806
H          -1.56722820643628   -0.72482051557166   -1.38018685132355
O          -1.63467765406890    0.10021767939306    1.31049906291164
H          -1.02936539645008   -0.35123854804671    2.04950514262680
H          -1.03526027124469    0.84837015020637    0.81288568046454
H          -1.77171050428840   -0.58594357016914    0.57625864334380
O           0.95991128600158   -1.38556696374018    0.25944082793036
H           1.39262721511757   -0.78728232347532   -0.38372209823554
H           1.38759942146065    0.00306365367479    1.23094368755882
H           0.12075046566281   -1.63692955297247   -0.15264731510234
N          -0.10077566641212   -1.02676268800079    3.02314947372614
H           0.43208332025350   -1.68860955748468    2.46792889822003
H          -0.49051790798772   -1.50166570760103    3.82701278833403
H           0.53535657806576   -0.30350923568400    3.33942388234722
