    26
        -50.44829515  Gyration_radius:  2.45633442671 Dipole_moment: 7.708
 S           1.09849588612300    0.15309537156415    1.76686841650599
O          -0.04746799602643    1.04775303131490    1.91097795376336
O           2.12179179061759    0.29421721791881    2.73796056319441
O           0.49825155724831   -1.31627955442413    1.84735729937425
O           1.60518010605188    0.23640048900220    0.36785300275985
O          -0.83691324310598    0.42465116872115   -2.16267071567410
H          -1.04443491495171    0.61586893726081   -3.07793392143345
O          -0.38470102197226    3.45738642658616    0.85443205892342
H          -0.32083271971481    2.60549760447254    1.33613736501208
H           0.11325126999308    4.09062122777037    1.37338284257145
O          -1.59467124908308   -0.43746970041899    0.41375153602653
H          -0.34816368219392   -1.17362511256280    1.39114948612123
H          -1.28850355292515    0.30172809270171    0.97823258553401
H          -1.56866449391429   -0.09366540745205   -0.49090995079411
O           0.73400633870830    2.20554913095316   -1.23543011311174
H           0.27827051533888    2.81268942681005   -0.61452209033555
H           1.24405089444718    1.60302849095775   -0.65905915982162
H          -0.26803781985363    1.20629357980561   -1.83254864946779
O           0.86842298989911   -1.32824422750353   -1.37203457773457
H           0.32570092237280   -2.10866404273597   -0.91118076910936
H           0.19195344684390   -0.71178605945814   -1.80876622749961
H           1.27016728880010   -0.70417400125573   -0.58661251438721
N          -0.51301085946753   -3.14567913459721   -0.21189748956306
H          -0.70092022760278   -4.02348632560539   -0.67857447509920
H          -1.39133198972522   -2.68202748022393   -0.00271609933318
H          -0.04188925590867   -3.32967915960449    0.66675364357880
