    26
        -50.44829501  Gyration_radius:  2.45639025396 Dipole_moment: 7.713
 S           1.63179933612372    1.09061887475800    0.70491421628880
O           0.22422211101502    1.13843483835514    1.19171663304447
O           2.06171635638810   -0.41308809132740    0.98798206135901
O           1.63629817677715    1.22693417899884   -0.74978771670257
O           2.49480950278231    1.96488122724353    1.41263505067298
O          -2.15700195303571   -0.56203633372802   -0.76920718587968
H          -3.07996649231280   -0.71072852381835   -0.97740448787090
O           0.10274426873342    2.78891667603578   -2.24804805414499
H           0.44594586512632    3.68273428741744   -2.20736697725869
H           0.75336172777849    2.22923930970616   -1.77333349561170
O          -1.72083381613738    1.93306667045355   -0.47914030224530
H          -1.22402708405190    2.31210472357068   -1.23497789815604
H          -2.03404569010443    0.45160502639708   -0.73762361444853
H          -1.05463253239171    1.83947779395471    0.22993837303746
O           0.58084711173121   -1.13484918637076   -1.13297135949159
H           0.95454419281267   -0.24857785027490   -1.31677076952686
H           1.63048367646147   -0.85206522337397    0.23566183795475
H          -0.37687360670559   -1.03119279216872   -1.22932033723114
O          -1.09491460760097   -0.89955568898082    1.54664780914280
H          -1.61895029678625   -0.85574425938055    0.67936399806994
H          -0.44785787082210   -1.73201262763824    1.47752049990076
H          -0.48568651184880   -0.00955028548682    1.48883785282630
N           0.50291917505420   -2.88264318327554    1.28104655832688
H           1.37453002560694   -2.59210748425020    1.70964291914762
H           0.65207382017222   -2.93684881475446    0.27853779465084
H           0.24849511523472   -3.79701326206154    1.63150659413989
