    26
        -50.44829510  Gyration_radius:  2.45637747548 Dipole_moment: 7.709
 S          -0.05498441224236    0.64071968304000    1.98438612871340
O          -1.18300310690289    0.58599462112588    1.01202546008763
O           0.38451816313793   -0.88104872663545    2.11453218102459
O           1.07845777057102    1.31868505484168    1.35980156863799
O          -0.44275417898905    1.12652810859608    3.25863205640840
O          -0.32104173308341   -0.09669335718165   -2.33421667095124
H          -0.58310074943285   -0.09965317732255   -3.25543303512373
O           1.03639495367938    3.41918552561963   -0.25963452404360
H           1.15305150214157    2.68408547010535    0.37903523802040
H           0.91507213980372    4.20936312580565    0.26878607555798
O          -1.54008800412587   -1.35079838808127   -0.45072210880853
H          -1.12409123015488   -0.94991981875439   -1.28417392520439
H          -0.90493754267933   -2.13214734671097   -0.13104434792917
H          -1.44516334691154   -0.54344492633574    0.26112355141642
O           1.54716383311796   -0.65174218517369   -0.29475398582797
H           1.10214051105744   -0.46161295366453   -1.13323394837011
H           1.62388442157230    0.21353259057592    0.15721094421560
H           0.89956623522191   -0.97424215462610    1.29542935521676
O          -1.07148478590608    2.07105165963845   -1.22169350062937
H          -0.31970446399941    2.67664974725094   -1.04865595424780
H          -0.58465244493706    0.81986483116713   -1.96821097446192
H          -1.27314350001462    1.67566298089947   -0.35086266532964
N           0.08328592339803   -3.17794824534798    0.31305978227066
H           0.98330804960467   -2.85726838452725   -0.02942571294211
H          -0.05803251460298   -4.13974834782523    0.03264723027704
H           0.09933849067539   -3.12505539648022    1.32539178202261
