    26
        -50.44829510  Gyration_radius:  2.45633746129 Dipole_moment: 7.709
 S          -0.52629406230326    1.69205849094839    1.10062281494865
O          -1.19839788865921    2.80029432068618    1.67524593421535
O          -0.24200939054254    0.60867738450853    2.22816752308628
O          -1.36267195532834    0.94710676832726    0.11759240077861
O           0.77482894731902    1.97524434689417    0.49945600884041
O           0.29291117617422   -1.50966771000124   -1.78753285572130
H           0.28054266553819   -2.09196285268646   -2.54788914897179
O           1.30277940800147    2.66567576494495   -2.00664085262787
H           1.19732018032288    2.47783360054067   -1.04984164024241
H           1.10385846546666    3.59677791256098   -2.11506028042201
O          -0.57008555806915    0.79804767259280   -2.44309736309136
H           0.15073403176144    1.46126915583501   -2.49162048870192
H           0.00701007057520   -0.59085667109487   -2.13041507827596
H          -1.01864827458916    0.98513190251893   -1.59507895631616
O           1.52190436373480   -0.53070846681524    0.55532645458642
H           1.32517992216227   -0.92919483493520   -0.30473983208015
H           1.53795291277699    0.43485458308352    0.39338638339771
H           0.46103810203499    0.09809917319871    1.79241157482685
O          -1.45890730940166   -1.50412922489943    0.09306717851683
H          -1.49738770901837   -0.42686705042899    0.16722605733100
H          -0.81318077991766   -1.64174837623709   -0.67671971500004
H          -0.98488222544213   -1.86549649731050    0.96541132068050
N          -0.22177276631618   -2.32474491142059    2.17945678044626
H          -0.46668735870612   -1.67385753967878    2.91718018265376
H           0.75646846350781   -2.18110397794797    1.95010111414619
H          -0.35160343108516   -3.27073296319121    2.51398446299281
