    26
        -50.44829500  Gyration_radius:  2.45644817622 Dipole_moment: 7.716
 S           1.53678394825518    0.41471796108165    1.34764969794081
O           1.65541599428572   -0.15922308134858   -0.02233313985603
O           0.67091451837630   -0.67073894811536    2.12109564797341
O           2.78763909603394    0.56501005998045    1.99784428511560
O           0.69809367014175    1.60977731290053    1.29099217013230
O          -1.27037027281188   -0.12243857994938   -1.98304897957819
H          -1.66719264374279   -0.20970002260494   -2.85036366350002
O           0.63836646904060    3.47626140809370   -0.59297496480383
H           1.38596040592073    4.06206937500463   -0.46569812050145
H           0.63630071475877    2.87153277475394    0.17908704498768
O          -1.48201975851838    0.24955173087475    0.80529132465960
H          -1.62463319905631    0.22981503876421   -0.15204538716785
H          -0.21357878044442   -0.44335208560105    1.78854279562701
H          -0.87923719692385    1.00579514547100    0.95923036841919
O           0.84644805333231    1.29057367229974   -2.13173081185125
H           0.72115552248086    2.18602483524549   -1.75202603400577
H           1.34490873630847    0.80174496266760   -1.44763454492439
H          -0.47501018667075    0.50821261747160   -2.09816572838964
O           0.15063017811128   -1.92329338252795   -0.82452618986169
H           0.87602492143432   -1.22180091360302   -0.44020128787089
H          -0.40765984256557   -2.28441224996651   -0.00327835112747
H          -0.46391400967417   -1.32134368460989   -1.36195357269289
N          -1.23533714786384   -2.69697128708400    1.18455408580527
H          -0.59852540380808   -2.69846942928302    1.97340547060419
H          -1.73211524312343   -3.57788548014972    1.15635414026248
H          -1.89904854328388   -1.94145776977083    1.32193373460009
