    26
        -50.45300969  Gyration_radius:  2.43475972693 Dipole_moment: 5.198
 S           1.43273551202602    1.22877428561093    0.90893185167010
O           0.27914266269407    0.56440299859469    1.69429725518825
O           2.21897868907326    2.02244877906733    1.77617910160980
O           2.25774736217511    0.05170100228021    0.36433674414156
O           0.84424942576177    1.92225702967673   -0.22713365399954
O          -0.54151736373535   -1.01561336146672   -2.01913591697262
H          -0.99365483316552   -1.21621473433588   -2.83937531735473
O          -1.69033677891187    2.70924568825000   -0.56103402420962
H          -0.72214788532294    2.57789462177304   -0.55268396931920
H          -1.86555968946419    3.45813219705969    0.01054815570312
O          -1.69592415618145    0.13904210584646    0.15523678750065
H          -1.36011683123770   -0.29799563404337   -0.65315350190983
H          -0.51682191663696    0.37762508466097    1.07514731483971
H          -1.91175631148052    1.05717906727514   -0.11766801096347
O           1.51785126517059    0.56234977997113   -2.38693681659695
H           2.33039467582833    0.14053038518402   -2.09521927874496
H           0.21399492754698   -0.41070081247794   -2.25245285546832
H           1.29535189753864    1.20629341003387   -1.68195994722893
O           0.90515321965817   -2.03652178520742    0.07646108774822
H           0.26797404333896   -2.13203096955905    0.83771630345356
H           0.36107574700404   -1.88329985496817   -0.71370757522343
H           1.70847755878814   -0.82948564706351    0.26948613803705
N          -0.90323064702876   -2.11416538775164    2.04451005801259
H          -1.21126628687742   -2.94894394973943    2.52597402554536
H          -1.71137105226175   -1.65785550451543    1.63709635050802
H          -0.50942324429856   -1.47504878415314    2.72453968403238
