    26
        -50.44829505  Gyration_radius:  2.45640421471 Dipole_moment: 7.709
 S           1.41565118084883    0.39187324554345    1.48071329785367
O           1.65800759952646    0.13575538877724    0.03277046556464
O           0.74476030063575   -0.95973864435102    1.97981928784662
O           2.60860806516699    0.62006524698343    2.21204620952589
O           0.37823178193807    1.41164449153019    1.61578695506986
O          -1.19548755915140    0.06413457134189   -2.03128988734249
H          -1.55649482444890    0.08679235609107   -2.91814590724452
O           0.01536886941085    3.58063243069865    0.13235594590771
H           0.10921806878869    2.84168537476626    0.77028970333429
H           0.64407735757657    4.24854818479584    0.40973752853663
O          -1.51595496393297   -0.17606872542503    0.76080592620863
H          -1.63664068440526   -0.02693031069630   -0.18811156426225
H          -0.16053346818253   -0.82500056698417    1.65258150917741
H          -1.06119105702792    0.62589780127408    1.09080916200187
O           0.63721283748039    1.82026520658638   -1.79147589374285
H           1.20405928023791    1.29658612583065   -1.19166986254764
H          -0.52390059922010    0.83205487169561   -1.97977021152235
H           0.34730989333852    2.58521281728633   -1.25052405117299
O           0.50607340586644   -1.66181983980223   -1.17548985216639
H           0.00801737549902   -2.27165026463093   -0.47118944166489
H          -0.19715694502460   -1.07885616183445   -1.61591483941458
H           1.08827673822711   -0.93765644616167   -0.62383554413152
N          -0.75252342607082   -3.05222711773219    0.56802633543124
H          -0.13893347046505   -3.10391132315824    1.37337885038804
H          -1.08306420921866   -3.98134668854100    0.34184515707102
H          -1.54299156739488   -2.46594199388291    0.81645071129210
