    26
        -50.44829494  Gyration_radius:  2.4564174819 Dipole_moment: 7.709
 S           0.41592000449310    1.05863799162414    1.74787142692077
O           1.19300433939283    1.68924890674571    0.68349972261830
O          -0.91999704115437    0.67472880164925    1.21053484510119
O           1.11794320454892   -0.34349728589322    2.00733934494027
O           0.33889968545821    1.77639537539697    2.96808757340974
O          -0.95942654311174   -0.64638910397310   -2.05470891980203
H          -1.47204194498556   -0.88059624496061   -2.82913665750501
O           0.33880805367974    3.36384332712252   -1.18822688283267
H           0.75501620246226    2.80405300638126   -0.49887020691248
H           0.24668980716235    4.23479219413613   -0.79921822641737
O          -1.70363526387195    1.62749813604444   -1.17386252615537
H          -1.04500331705585    2.32986465774100   -1.36013731246723
H          -1.25287817663210    0.29737007175664   -1.79648967081779
H          -1.57742600640517    1.41794275759591   -0.22755160037245
O           1.48215520045269   -0.54421713772974   -0.64599676598829
H           1.38289740912493   -0.56576423470382    1.09895698948717
H           0.78963257222432   -0.59144090255874   -1.32083007584342
H           1.54274241330274    0.40338721944070   -0.40657470761304
O          -1.36075801265092   -1.56510960300840    0.31199922986719
H          -1.19837627062143   -0.61417703958382    0.79855651678184
H          -1.27433034449272   -1.32030571928662   -0.66830930132968
H          -0.54137367102913   -2.18786159762758    0.55075113804739
N           0.69045521253024   -3.00328186668713    0.84202912027143
H           0.98845359137922   -2.72499678982398    1.77019079262056
H           1.38810521878523   -2.67752708382798    0.18065846402654
H           0.63452367701393   -4.01259784596917    0.79943769996005
