    26
        -50.44829508  Gyration_radius:  2.45641090517 Dipole_moment: 7.709
 S           0.25787930516885    0.73534898395448    1.93477719598597
O          -1.00930361252244    0.64203064155644    1.15609480410111
O           0.71336757288061   -0.78147890783126    2.06787624214917
O           1.27814210873145    1.37452848469569    1.10715606196097
O           0.07567241806697    1.28439644392633    3.22916311312357
O          -0.68429598486678   -0.20609980861699   -2.24738192459892
H          -1.08847294188228   -0.25115900556617   -3.11452871948375
O           0.98084447307093    3.39604807203173   -0.58450509999950
H           1.19706080779800    2.69125662035992    0.06229572039660
H           0.94408707584195    4.21130509294154   -0.08220205710504
O          -1.25108853688538    2.01766753858655   -1.13669169100460
H          -1.31289888151897    1.66584790928587   -0.22689232524287
H          -0.48199157100233    2.62579561624196   -1.11357315268770
H          -0.88701899810986    0.72879246109806   -1.88914499380978
O           1.48166872102117   -0.67658186007679   -0.50275568131684
H           1.09255718157489   -0.91769299587844    1.18328581567898
H           0.91034369564517   -0.52378508127700   -1.26922819386408
H           1.62821016585896    0.20886463182596   -0.11117187436560
O          -1.59119495547101   -1.35970723582982   -0.13724062348486
H          -1.38579880086916   -0.51993929894997    0.51098614086239
H          -1.31156347580570   -1.00221727767363   -1.04415600924203
H          -0.91353394226774   -2.12943013452716    0.11633953829670
N           0.13264928576997   -3.15989625991262    0.45013344655770
H           0.96747061903376   -2.86233821585559   -0.04463262912429
H          -0.05037943503422   -4.13307313472177    0.24239397408899
H           0.30758770576999   -3.05848326978826    1.44360291212171
