    26
        -50.44829509  Gyration_radius:  2.45638142009 Dipole_moment: 7.707
 S           1.01253885013514    1.81704217894856   -0.15627540982899
O           0.12076453260986    1.36218827307783    0.94772420441760
O           0.33300558793769    1.60806798971600   -1.43258058208448
O           1.54530546859200    3.11332172015859    0.05788937109041
O           2.19330864395329    0.75356678262412   -0.12901308002163
O          -1.69788936516487   -1.59621116524697    0.35855698135271
H          -2.41770954357531   -2.17199703286923    0.61870727997168
O          -2.23461938210177    1.96404889072248   -1.99575454511383
H          -2.39305773068052    2.90111866061197   -2.11860772491959
H          -1.26381707745571    1.86623253121730   -1.89684121920255
O          -2.45962655491871    0.83596000895009    0.42572544500275
H          -1.60521613322502    1.20344602347589    0.72614709383750
H          -2.58523996805612    1.20835638752059   -0.47281271014917
H          -2.08545970685053   -0.65135864338792    0.33649922411589
O           0.51595647147897   -0.99665693181293   -1.28320209009251
H           1.75870663659955    0.01325738314263   -0.58507103607404
H          -0.30612807337727   -1.34112340613779   -0.90527425717401
H           0.29098528694730   -0.10378218948204   -1.61633959639784
O           0.25943132354671   -0.90492064297435    1.87443256925961
H           0.26537618729422    0.12228008632374    1.53852736300204
H          -0.52951105733179   -1.29028778257379    1.36714088624113
H           1.12963213355937   -1.36813201497357    1.49479017675715
N           2.33302790603069   -2.00797395640044    0.85413586968341
H           3.03865200171994   -1.28112361408993    0.81331957427443
H           2.04842000358620   -2.21893027702774   -0.09698774207921
H           2.73316357874559   -2.83638924951560    1.27516396413113
