    26
        -50.45812145  Gyration_radius:  2.42455052337 Dipole_moment: 3.419
 S           1.56053498169800    0.67593426661755   -0.59779675645090
O           1.46871292383453    0.84771017473777   -2.02289567835348
O           0.32196619396711    1.37608088798959   -0.00447907934546
O           1.36729500053393   -0.81356852163071   -0.23629662733386
O           2.75238291618966    1.11474430017298    0.04710513958632
O          -2.15859129906918   -0.89391020300785    0.80254786199613
H          -3.00645613312895   -1.15336591457303    1.16532336224379
O          -0.94352603290149    0.37936683183855   -2.88168148477316
H          -0.02949669707494    0.63191068493716   -2.59234373332764
H          -0.94250577591456    0.43703260647786   -3.83854670221313
O          -0.15095062531951    0.41355660120566    2.22463195069939
H           0.74519648815042   -0.00119299846212    2.42159633228597
H           0.14335196308161    1.04216553004633    0.99008198294452
H          -0.76621825047722   -0.28184572726721    1.93659559822782
O          -2.36235360563438    1.27630684595812   -0.68915344890893
H          -2.09024027606793    1.00328638053594   -1.58066339522974
H          -2.31629718031755   -0.05099371126211    0.29852670654255
H          -1.59832756350760    1.75648143417851   -0.34530783909969
O          -0.70226637987713   -1.80591930052057   -1.30133304365336
H          -0.92744325055515   -1.13916105414318   -1.97870510151322
H           0.57641905046984   -1.25432357537513   -0.71634180960737
H          -1.30874307352403   -1.65829017784148   -0.55029391109372
N           2.32756537567173   -0.42731016574327    2.42253572371273
H           2.47309034582944   -1.38904936589767    2.14200566173441
H           2.90834373531774   -0.24244356578837    3.23092739736020
H           2.65855717862782    0.15679771683740    1.65396089355356
