    26
        -50.45812149  Gyration_radius:  2.42455645331 Dipole_moment: 3.421
 S           1.23210910870808    0.77552580964103    1.06360300406956
O           1.33278854932607    0.26380895025260   -0.38705852640690
O          -0.07240361320390    0.14627668375637    1.60117488450579
O           2.30159267767643    0.27103198606406    1.85776085123579
O           1.08296655560322    2.20307646068300    0.97120156720244
O          -1.67361703805874   -1.04111627141958   -1.48988996928168
H          -2.24481214680175   -1.47969132122632   -2.12169684518488
O          -0.64303303151053    2.85967705335773   -0.86325363179406
H          -0.76231246494739    3.81059682358438   -0.84256121098813
H           0.06893089956748    2.65972516558435   -0.20281967635196
O          -2.11602377500366    0.92631391048979    0.32978079161417
H          -0.91904919005138    0.50508678955081    1.14856575780880
H          -1.77483214063795    1.70157370571765   -0.15675567589038
H          -2.15204228074035    0.18829060093965   -0.30876419190241
O          -0.17894271230531    0.80368674231571   -2.64706382859189
H          -1.11794450361240   -0.40215173614816   -2.01180508761264
H          -0.43724790043735    1.64281224168195   -2.23165583705860
H           0.66453098195185    0.58384791973641   -2.23150440245179
O           0.67294565746532   -2.11971824850367   -0.44430604768026
H           0.78868798048000   -2.34875405980561    0.52930743685621
H          -0.27223160370544   -1.98710016804235   -0.62903280654171
H           1.13612868072803   -0.78107748799862   -0.43073344391789
N           1.19414422439793   -2.35730375581756    2.11731087513506
H           1.77711987729158   -3.09434634386849    2.49398732295886
H           0.39263395564677   -2.24628228317148    2.72566204061847
H           1.71991326217546   -1.48378915735012    2.16054664964857
