    26
        -50.45812141  Gyration_radius:  2.42452908786 Dipole_moment: 3.419
 S           0.21489267855905   -0.08748024263592    1.78739405646833
O          -0.98268583514167   -0.47620565124534    0.89802025193953
O           0.54513375326326   -1.14115380031448    2.68717454507921
O           1.39393786798755    0.05595565532173    0.79942920584365
O          -0.10871958178996    1.19601895413964    2.35005751774227
O          -0.33445551805153    0.13152047785785   -2.44415428614188
H          -0.53860422566579    0.11343129493298   -3.37998667434540
O          -1.08750387807318    2.80270307657599    0.55114945006116
H          -0.78290882612912    2.20584677783321    1.28191894764562
H          -1.22158113134885    3.66307588543856    0.95202567281702
O          -2.40042411678666    0.94473410810141   -1.01363110047677
H          -2.36181732472242    0.27684445323475   -0.31722532510330
H          -2.10707871276747    1.76115287931016   -0.57681085961979
H          -1.17224751257124    0.40070043965489   -1.98036180479205
O           1.01955388683613    1.90133728194323   -0.89067071436522
H           0.63915402610274    1.34447535809511   -1.59697588360887
H           0.27740475607818    2.39822857335242   -0.49506741753387
H           1.29580543591705    0.84547356399094    0.15337445398864
O          -0.22441531496659   -2.11177534859940   -0.79576110912318
H           0.00268599254915   -1.47629872735430   -1.49558972683784
H           0.62214734586534   -2.43049634083098   -0.35354120446772
H          -0.70723120832103   -1.24226117102574    0.21243784429663
N           1.82808553060559   -2.76227134578323    0.70558572016146
H           2.68769853055127   -2.27575166424387    0.48356500646447
H           2.05826914779323   -3.72051719144482    0.93747624795486
H           1.44490424423258   -2.31728727631501    1.54016720595408
