    26
        -50.45812141  Gyration_radius:  2.42453138224 Dipole_moment: 3.421
 S           0.96510145692723    0.50793655302605    1.43537859303327
O           1.40518509214777    0.15198775191859    0.00153063696652
O          -0.48147462564097   -0.02536891905026    1.53450536528663
O           1.74156177446163   -0.19927804322720    2.39757274014537
O           0.96100361126125    1.94459941290231    1.50410398369438
O          -1.29755452328505   -0.67316441260462   -1.99155759701049
H          -1.71383160439453   -0.97225241067699   -2.80090774836301
O          -0.15932419357108    2.99263178837239   -0.59870133324451
H           0.33407930419798    2.64105917575148    0.18614678076479
H          -0.20380056149385    3.94260078243009   -0.47828118115207
O          -2.04622783684934    1.11839734881948   -0.09188428780464
H          -1.52678888005164    1.89895682257751   -0.36598069031475
H          -1.97157970321829    0.46462841732789   -0.81347359390868
H          -1.14643647725027    0.47545611669289    0.93672469637499
O           0.59356253494790    1.10740175969096   -2.47068291328468
H          -0.57406946368069   -0.04723903965009   -2.26396346049704
H           0.30284650152620    1.91965401107337   -2.02447487434745
H           1.27570402055978    0.74900631268990   -1.88862108436532
O           0.59356360827637   -2.11991839566657   -0.54515441653630
H           0.42865200383925   -2.46728323645273    0.38541228184614
H          -0.25515773835346   -1.86110181478615   -0.94243591402040
H           1.14315235067883   -0.85251203659233   -0.23261359530861
N           0.39729719882348   -2.69800232653975    2.00776664765892
H           0.79858767903454   -3.53335148630071    2.41535137461980
H          -0.52518091216641   -2.56521732695278    2.40302716800408
H           0.96112938327559   -1.89962680477350    2.30121245175917
