    26
        -50.45812141  Gyration_radius:  2.42453727372 Dipole_moment: 3.421
 S          -0.23490883632680    0.21817617310811    1.77400965147513
O          -0.24174384865277    1.62680157045780    2.06462178184650
O          -1.38802690200185   -0.12212052578578    0.80378593332165
O           1.04347380068738   -0.04036298767467    0.95231754177082
O          -0.32729770874030   -0.68525822808528    2.87133632688456
O           0.35765526005186   -0.27718718689373   -2.42870894405462
H           0.58432084442076   -0.42984807702878   -3.34691538443929
O           0.37238449423009    3.03304213843359   -0.03790741577955
H           0.20005128205555    2.53698942054911    0.80308365583974
H           0.28666639236586    3.96219488612248    0.18175185554823
O          -1.41986116146226    1.38798960607067   -1.22605763938420
H          -0.82832763747775    2.11579525910195   -0.95292634091069
H          -0.89906418035174    0.81013670540666   -1.81643307641123
H          -1.46382937895253    0.52430211819325    0.01211624149194
O           2.13170703453869    1.27201694243034   -1.23328268164288
H           1.09459202936598    0.27046055914834   -2.04606895949376
H           1.64066220366089    2.06428654295314   -0.96024142510187
H           2.23511455042169    0.76515860868953   -0.41783417329954
O           0.74309343965030   -2.11109548041335   -0.36719646181071
H          -0.01434787216926   -2.52936832089452    0.14770055300066
H           0.38941403534861   -1.69941194517978   -1.17377275229280
H           0.97725151769964   -0.96978091695110    0.43824661345156
N          -1.13421765084119   -2.92390567611268    1.27757197238313
H          -0.89043712027604   -2.24464204991191    1.99908767857117
H          -1.13568537964637   -3.84420032799521    1.69949279099724
H          -2.07863919759898   -2.71016881773870    0.98222263803494
