    26
        -50.45812154  Gyration_radius:  2.42457965407 Dipole_moment: 3.418
 S           1.55477515510351   -0.54621149145052    0.73150745380096
O           1.42393961797998   -0.10711027566752   -0.74392502501803
O           0.09925207939153   -0.72727796581040    1.20585794991863
O           2.25261570335840   -1.78794156746146    0.74131548113336
O           2.09610913595225    0.53173229646575    1.51483672122354
O          -2.14433383856596    0.75810668886086   -0.96533469156918
H          -3.02013203908909    0.98126494522078   -1.28310335512929
O           0.42165703214031    2.51801256020334    1.67819938753464
H           1.06221534665333    1.76154859787327    1.69930141892048
H           0.84728919576293    3.23712574383864    2.14795101950586
O          -1.94375284278321    1.09374698349362    1.64689121582832
H          -1.49286326298961    0.26740352613163    1.86198203062856
H          -1.26204894117772    1.77507002757098    1.76742623612878
H          -2.16969110957462    0.86631246062487    0.02313251789363
O           0.21590750362671    2.10250717472966   -0.98945528450225
H           1.00356429401949    0.82013760178704   -0.86101263154263
H          -0.67856122630875    1.73767048282357   -1.13276286173220
H           0.23346200286665    2.45159547049917   -0.07734677865439
O          -1.19676855581394   -1.83446705324640   -0.58681154559966
H          -1.51428471002818   -1.03029275308724   -1.03132999691787
H          -0.44005925957799   -2.22874647470636   -1.12132377685319
H          -0.46333246726393   -1.27688688053480    0.48895710533639
N           1.01201406578136   -2.78498665855349   -1.63917731699362
H           1.39844293917074   -2.22780542019981   -2.39089581877952
H           1.13247228060446   -3.76196548964339   -1.87582048979318
H           1.57211194076140   -2.58854253976249   -0.80905898476950
