    26
        -50.45812144  Gyration_radius:  2.42452551192 Dipole_moment: 3.421
 S           0.29480345057496    0.66753075282864    1.64845099751572
O           1.35783374275665   -0.12279748672535    0.85334769123440
O          -1.02095291631847    0.40753739393126    0.88842500484081
O           0.24653569009245    0.10875928254612    2.95776457852538
O           0.54816036244562    2.07855190165005    1.53210164494576
O          -0.43598328429611   -0.88722018514463   -2.26413646083497
H          -0.69939985123729   -1.25261873694445   -3.10965740238925
O           0.15487973746999    2.91589779472084   -0.90091899404456
H           0.40219724663628    3.84084108987912   -0.94816417785525
H           0.25160654698524    2.65604343304358    0.05097450767332
O          -1.89894120903628    1.21351205397330   -1.61413286034959
H          -1.27461158776238    1.95539168685922   -1.55746907690807
H          -1.06186281010526   -0.13724451397513   -2.07640246277577
H          -2.07630458061284    0.98275697615639   -0.69335649971881
O           1.61934064719338    0.72356100836888   -1.51662102463311
H           1.53200037013262    0.25077528052187   -0.08501346373366
H           0.99811303931225    0.09930505333382   -1.93866205448802
H           1.16614135887229    1.58808878277773   -1.47971345724667
O          -1.10017919172069   -1.97135105231643    0.21479199845499
H          -0.41845409765211   -2.34877040327925    0.85245714006142
H          -1.12297306487510   -0.62660365971542    0.65865787729804
H          -0.69295380047983   -1.87022967256644   -0.66217279118115
N           0.63303470562300   -2.59160854765110    2.08590293170259
H           0.52059948739553   -1.70503579246028    2.57859033329366
H           1.59585436431524   -2.63358298458671    1.77596317021755
H           0.48151561428965   -3.34148946522720    2.74899286039337
