    26
        -50.45812145  Gyration_radius:  2.42455932984 Dipole_moment: 3.421
 S           0.48710729383291   -0.28721486312412    1.71195753674414
O          -0.90621783706272   -0.25578033428223    1.05317284797667
O           0.65092970690466   -1.46035417188561    2.50299742680440
O           1.46892802840142   -0.39634412833413    0.52413899221995
O           0.64756546917261    0.98582809900293    2.36187229812368
O          -0.69998036091325    0.41563290850418   -2.33264022602517
H          -1.05847871765925    0.53100030881148   -3.21352230483830
O          -0.12643405090564    2.93927778820667    0.82562756869906
H           0.11622215186312    2.22479838080761    1.46879843509631
H           0.06278202656521    3.76810772160385    1.26851346818707
O          -2.16697720558802    1.65017579033164   -0.51594937366827
H          -1.58074517452437    2.31519295964816   -0.11912990429605
H          -1.33230995039555    0.86760263832991   -1.71193086524973
H          -2.20227897252208    0.94368421436223    0.14141938873511
O           1.35166293482896    1.61026934304674   -1.01261149114495
H           1.49049554491891    0.43875410014158   -0.06953101731812
H           0.71145385565614    1.23907006100705   -1.64981528664052
H           0.86298466388115    2.25916900805870   -0.47009438283801
O          -0.95484175713136   -1.89569979618942   -0.79820897444326
H          -0.67972993772835   -1.29385830193627   -1.51040633931767
H          -0.17210633244518   -2.47089819582737   -0.53308089883564
H          -0.98531084830326   -1.01033526960754    0.30697448294129
N           1.05269468508903   -3.20736101415433    0.26923241404744
H           1.96342474412259   -2.96074784552217   -0.09759796745769
H           1.03545048166471   -4.20733471824311    0.42641181838553
H           0.96370953827487   -2.74263471276798    1.17340235411445
