    26
        -50.45812145  Gyration_radius:  2.42455961523 Dipole_moment: 3.420
 S           1.45093365855783    0.06620115377196    1.06793693135126
O           0.10392794692011    0.81108880558816    1.15203887730961
O           2.38823644973044    1.00305939883855    0.50890724849752
O           1.77996482092454   -0.53525515002453    2.31647197961677
O           1.19228060262328   -1.07872270648949    0.06340881229983
O          -1.99300698565435   -0.04974737464084   -1.45906454041190
H          -2.81757999000874   -0.03116547838941   -1.94642443103039
O           1.36591100431021    2.27123907437683   -1.52129698950810
H           1.77224020525372    1.86273548970787   -0.71440304841471
H           2.04437655973999    2.82988003054801   -1.90406589634772
O          -1.26469980507065    2.36901599425436   -0.68738720114633
H          -1.81861341147425    0.88553017773190   -1.16878444431025
H          -1.02200422277553    2.15978665972460    0.22356344268091
H          -0.41509831089269    2.53570457128164   -1.12759605090592
O           0.60172419380512   -0.22371374876128   -2.24355402989999
H          -0.36880539023898   -0.24523188805589   -2.13717962579058
H           0.86859925265727    0.71454852615198   -2.19209784988482
H           1.02392435842127   -0.75514625527090   -0.89434351432860
O          -1.72915896444844   -0.84939414842391    1.19660142144096
H          -1.88904861453502   -0.89015804924887    0.23852892278271
H          -1.20976438211019   -1.66471033234407    1.47818624823785
H          -0.69991382143187    0.12174642727841    1.25758212401479
N          -0.07206663255121   -2.70230362865958    2.03981052251580
H           0.31537639062123   -3.28858317354223    1.31109862238656
H          -0.26146413225054   -3.28426006433608    2.84630018706407
H           0.65372920987750   -2.03214429106563    2.29576227177945
