    26
        -50.45763563  Gyration_radius:  2.42184522348 Dipole_moment: 7.919
 S           0.87368749433051    1.78395609431523   -0.73362920454518
O           1.52446896240701    1.68879616378983    0.69078870301532
O           1.02703618956998    0.45521419478064   -1.34443886897632
O          -0.58107234847119    1.99770516509256   -0.48941183677816
O           1.49921800532834    2.84421342492833   -1.44017925202195
O           0.81290443440005   -2.39336927273367    0.79283656531218
H           1.12183760296582   -3.20591612075711    1.19497728456498
O          -2.26661038515886    1.17486129076851    1.36630988672436
H          -1.65028337662925    1.65487345166347    0.76598724474370
H          -2.53550876530266    1.80667567377408    2.03441180644346
O          -0.28817712809773   -1.81580499630404   -1.63313286244394
H          -1.41908607353993   -0.81882710667483   -1.40382642714647
H           0.35504394690229   -1.09015988481085   -1.77149512856061
H          -0.00331912254953   -2.22000786448831   -0.79238227048805
O           2.79615228062650   -0.84295413554014    0.06301447465044
H           3.07518789736482   -0.19876780073802    0.71881027969849
H           1.62974026382583   -1.88343528697848    0.52876457028145
H           2.24506009872523   -0.32949423384090   -0.57522109978093
O           0.09641739832173   -0.04417565283618    2.02615268187164
H          -0.83386092960831    0.20884987376147    1.89783784883760
H           0.21629023561941   -0.93420911101944    1.65198671800824
H           0.98474597030799    1.04444048579367    1.21871971152028
N          -2.05008301688277    0.04621421385157   -1.24507090816934
H          -2.62204512532266    0.23370450595534   -2.06144895029005
H          -1.38035963029513    0.88826938716386   -1.05050540438676
H          -2.62738486883778   -0.05065245891506   -0.40985555208474
