    26
        -50.45763560  Gyration_radius:  2.42183636464 Dipole_moment: 7.920
 S          -1.33779835094473   -0.54255486026122   -1.54920443647453
O          -0.55754723063670    0.66097761356842   -1.95460231395967
O          -2.41817045434419   -0.84614259500118   -2.41826135566673
O          -0.31785697713742   -1.73383925892999   -1.59545528865978
O          -1.70659798315324   -0.37266712888582   -0.13596845648013
O           0.80367850966820   -0.98517943057439    2.32395109495911
H           1.18122066669878   -1.40578428471859    3.09719615887215
O           1.94383152173979    1.42452610030274   -1.60515136161542
H           2.53736225756151    1.36007542826920   -2.35444472259732
H           1.06674358241095    1.10546296544703   -1.92068048428559
O           1.77689109507992   -0.94831251387820   -0.24607189023748
H           2.00090935146222   -0.06184312008116   -0.57758406051745
H           1.55406304861682   -0.86496507622005    0.69728075327500
H           0.49261307972890   -1.44727256382499   -1.09925680584118
O          -1.01111178522424    1.02207901176337    1.99502071886066
H          -0.30543000899854    0.42115300194017    2.29882726970640
H          -0.51896925362254    1.91051209298111    0.85753703757035
H          -1.53140425987970    0.47315315310931    1.37260439071579
O          -0.94669155365261   -2.52410743640387    1.12498148165593
H          -0.59257315961755   -3.07887362746840    0.42516502082457
H           0.13858352687324   -1.62988849470934    1.95113241552286
H          -1.38149028700737   -1.77284334539163    0.65461806620356
N          -0.27263464454136    2.38192244578798   -0.08521830786500
H          -0.52773745890913    1.66297264093404   -0.86848083326517
H           0.72889834733887    2.55156359071953   -0.17683010926972
H          -0.79878157950677    3.23987568153146   -0.21110398143471
