    26
        -50.45763560  Gyration_radius:  2.421830952 Dipole_moment: 7.920
 S           0.53670354386299    0.04753966652368    2.04785029587378
O           0.25092437039986   -1.35539846254567    1.63347782805229
O           1.29706393864803    0.68150043550293    0.96062516006283
O          -0.85905231905112    0.76331112600161    2.08134406472047
O           1.12564211004784    0.15771718868218    3.33456491125595
O          -0.50390938373899    1.74264582193645   -1.93040792214792
H          -0.80622130285634    2.37215263480178   -2.58591520781194
O          -1.52072000816644   -2.46401653841805    0.02279921037047
H          -2.26007756556250   -2.92310741042036    0.42336986748645
H          -0.97115370189068   -2.12546967295047    0.76711680082533
O           1.82572813557315    0.36470233359348   -1.60650983736441
H           1.88892278696466    0.65668948429559   -0.67367441999537
H           1.46934161324232   -1.05427580234499   -1.17649448094302
H           1.04031173366599    0.83496909753895   -1.94319719965195
O           0.06996831798979    2.89918417116860    0.35054098518068
H          -0.65146131194562    2.93585427518466    0.98386756019777
H           0.63831459346088    2.15346291910378    0.65968872389322
H          -0.28919116608408    2.27227862493936   -1.11164669058431
O          -2.00660181017689    0.22271312693509   -0.20266589232983
H          -1.92000694052850   -0.73712760433949   -0.33348946363328
H          -1.31701312351737    0.55619099301693    1.22544226020149
H          -1.53187775001768    0.66519455386618   -0.92748509498525
N           1.20474520437444   -1.96719590653376   -0.65855581349224
H           1.98685140032753   -2.61264164275740   -0.63690590027889
H           0.37848741922916   -2.40885086412476   -1.06164237725058
H           0.92428120574863   -1.67802255865542    0.35790265234629
