    26
        -50.45763559  Gyration_radius:  2.42182824576 Dipole_moment: 7.920
 S           2.06477311402448    0.12860061627330    0.45185042746881
O           2.03057652671054    0.73428469359220   -0.99506747759353
O           1.30191729071481    1.08832354495473    1.29953994717199
O           1.28936625658232   -1.11934132398306    0.39284210641391
O           3.42159058248416   -0.02654493603587    0.83862841771886
O          -1.54058535160625   -1.21868202774952   -1.77720499717395
H          -2.07669284831649   -1.55856778403753   -2.49443752439776
O          -0.78617521301025    2.64519015779914    0.87733733094592
H           0.09525697529088    2.23200480067876    1.02894667034063
H          -0.62691705180789    3.58392233350451    0.77109200134216
O           1.00559327704489   -1.73437066120228   -2.12455023845692
H           1.50374373073794   -1.04971077214284   -2.57841992206648
H           1.22636677598067   -1.61487817203755   -1.16972946002493
H          -0.59920492001378   -1.48040279324086   -1.98287456692650
O          -0.47284274862070    1.29710104180692   -1.48699245983284
H          -0.80195418328495    1.78584070438319   -0.71322058014121
H           1.08684746735782    0.96868206276214   -1.19414044447328
H          -0.99057879239716    0.47686411299216   -1.56233547335712
O          -1.16045445101164   -2.01418369093185    0.80219768538037
H          -1.50567514690940   -1.81122149629609   -0.08719894721016
H          -0.18829625922057   -1.98687367116134    0.68563431741880
H          -1.12790788049656   -0.76300562641004    1.67335206573162
N          -0.88106341124368    0.13363293198073    2.22724047437691
H          -0.87853259532383   -0.04497399971253    3.22566376905499
H          -1.50359408508100    0.90798772505611    1.99686621810674
H           0.11444294141227    0.44032223915655    1.89498066018279
