    26
        -50.45763560  Gyration_radius:  2.42183193671 Dipole_moment: 7.920
 S           0.14538812469333    1.77017430903688    1.15297870399949
O           0.45823661542611    1.66773784169068   -0.28010722069890
O           0.85499462628720    0.65719922086632    1.84533633973427
O           0.37992380697086    3.04652135799812    1.72791811727168
O          -1.38195279539243    1.43950045940580    1.29252239141330
O          -1.25841207911760   -0.81286871828204   -2.18464640720396
H          -1.81026084380566   -1.13631709473016   -2.89752652232158
O           0.37542321287063   -1.92138177345201    2.13355036731732
H           0.49915688344839   -0.94731170289991    2.21425059663920
H           0.04849810559241   -2.22083312208256    2.98285495785431
O           1.36187484384063   -0.07422827051788   -2.04620488433722
H           0.50124711120032   -0.48483990488385   -2.25142535950461
H           1.11884321676966    0.77085838800841   -1.61471120293101
H           1.92923210847700   -0.62017056460518   -0.74028291349101
O          -1.80822862024305    1.67455635608924   -1.56818131806177
H          -2.45975541003544    1.78927242002728   -0.87157071477148
H          -0.93836794550371    1.82517500016971   -1.12620067033026
H          -1.52101085149966    0.13910645451218   -2.03706403398162
O          -1.66012242018264   -1.04216417526758    0.52451100251057
H          -1.48879546249377   -1.11708680325138   -0.43023923190050
H          -0.97530970636528   -1.55240180240242    0.98991049837125
H          -1.50482476100752    0.49341642507388    1.01862138315717
N           2.23909163394134   -0.81473647716706    0.27845523937360
H           1.92766278104187   -1.72981211778363    0.60386086824269
H           1.72370595368144   -0.08224319431419    0.90560056392949
H           3.24376187140446   -0.71712248123860    0.37778944971891
