    26
        -50.45763561  Gyration_radius:  2.42183537074 Dipole_moment: 7.920
 S           1.60916080007761    1.13494519309062    0.77876772681555
O           1.90716882767255    1.19889270927969   -0.76028076787471
O           0.33075028083214    1.87844260084218    0.96441869646893
O           1.34531775318264   -0.27830389693163    1.08735473119969
O           2.71021587104925    1.70399995418470    1.47048338028582
O          -0.32725512832374   -2.23622040116989   -1.38178474844880
H          -0.43230764787077   -2.97243783275607   -1.98539169847855
O          -1.84380077489235    2.17605234772783   -0.50014414514630
H          -0.99364746785587    2.24992172978321   -0.00777714059195
H          -1.96341614219489    3.01111866861242   -0.95425683926291
O          -0.29177914094272    0.45110161685876   -1.95665744417701
H           1.07604896157889    0.93184297389514   -1.23263663880102
H          -0.45915519120990   -0.49229098480146   -1.78778907235781
H          -1.01362232361530    0.95851879961074   -1.54755440230409
O           2.19587778470327   -1.68309453979213   -0.93726747246846
H           2.57927421835816   -1.02314390532075   -1.52069548251698
H           2.00864528493282   -1.19830013170062   -0.09787010417422
H           0.65586577857388   -2.11547890442294   -1.25582654355717
O          -0.66843586405368   -1.97106626605136    1.30970930948135
H          -1.34949281578975   -0.62999669938101    1.56100049491294
H          -0.71621794616238   -2.21541044775361    0.36662897365266
H           0.21809450380151   -1.56431119227172    1.39948089818493
N          -1.61606668127829    0.40610277070105    1.72575823388661
H          -1.91599965223449    0.55652850253934    2.68292129599316
H          -2.32513379164061    0.72712477507180    1.06665660910848
H          -0.72008951669957    0.99546259015635    1.51275215016871
