    26
        -50.45763561  Gyration_radius:  2.42182902233 Dipole_moment: 7.920
 S           1.05974421527084    0.37850224557228    1.79377280275900
O           1.34812091133992   -0.71827582408616    0.85780363233556
O           1.86293238128290    0.39463180137834    2.96392604823049
O           1.31518681060555    1.70859317374834    1.00183204245905
O          -0.40517126233524    0.35757755165817    2.06799674699627
O           0.54440517315382   -0.22431412718404   -2.58275051757189
H           0.72644018894743   -0.17886160607706   -3.52198592378216
O          -2.52760354827981    1.19979745336927    0.74587925931873
H          -1.76942854614063    1.04092926231927    1.35463117102685
H          -2.95252854223262    2.00222945971416    1.05151288536151
O          -0.43584613884937    1.74627497751959   -0.93679229702278
H           0.64755213875313    1.74764339098956    0.26838978621739
H          -0.23507359993928    1.04568788499026   -1.58130075778246
H          -1.29679991009559    1.54090772668897   -0.53369154071100
O           2.67093855766294    0.30163721299441   -1.14368024330680
H           2.77822054543667    1.22287592452250   -0.89323896152933
H           2.31250656523853   -0.13845054415713   -0.33588058509612
H           1.40891135613400   -0.03481436806167   -2.12046768453788
O           0.12199824613939   -2.29867655123773   -0.86531924016535
H           0.78919216359529   -1.94206623212282   -0.24314644393549
H          -1.01543196176278   -1.90221505344854    0.06988445463681
H           0.17223769256785   -1.69447424873222   -1.62938866922403
N          -1.65378337671116   -1.51388842691732    0.85307452708575
H          -1.99053974733789   -2.26057760028656    1.45124762646074
H          -2.43004937052365   -0.96917117434152    0.47765743300723
H          -1.04613093191877   -0.81150229881057    1.43003446876958
