    26
        -50.45300973  Gyration_radius:  2.4347549047 Dipole_moment: 5.197
 S           0.80455742897720    0.03946374251675    1.93368519736958
O          -0.60973379569762   -0.50245243824779    1.62547511695956
O           1.75246127748876   -0.89568847799895    1.16573539641988
O           0.90459033017803    1.36242666646961    1.33563859529514
O           1.06154791024082   -0.03059881866255    3.32269540386194
O           0.53512617099266    0.39598980994740   -2.22635415493242
H           0.56169258521098    0.80075926326021   -3.09410311210388
O          -1.07415503790226    3.00195174110726    0.59269595616322
H          -0.25151697387717    2.57099055789422    0.89639558112951
H          -1.49263338831662    3.36471146996341    1.37471143308610
O          -1.53094354315759    0.59768643129534   -0.46993717100235
H          -1.54571032764007    1.53793133351547   -0.18733120075343
H          -0.84329465460001    0.54795837028822   -1.16414266573853
H          -0.98216194619070   -0.07169151667837    0.77241004131275
O           2.54383053380303    1.15025325719472   -0.72237280261503
H           1.32330136647712    0.74349934100753   -1.72711545945057
H           2.01323156216346    1.37942122190533    0.06952602644389
H           3.07756230767074    0.39620273159233   -0.45818786153637
O           0.67096987680736   -1.95962297217458   -0.82720227928576
H          -0.26874463899477   -2.20936653509711   -0.60593342361786
H           0.61343952102287   -1.25579244149442   -1.49446735079277
H           1.30098577890998   -1.36520954697410    0.35156568516683
N          -1.89180548578920   -2.41615637970881   -0.21555521176258
H          -1.88062702292727   -2.38484925581601    0.79679967986906
H          -2.43087180776699   -3.22072574797338   -0.50817237163240
H          -2.36109803708321   -1.57709183713160   -0.53645905785219
