    26
        -50.45763560  Gyration_radius:  2.42183133484 Dipole_moment: 7.920
 S           1.41453832660861    0.06187688873838    1.57455571187701
O           2.16421788233610    0.03805352343008    2.77956016286099
O           2.20417778810775   -0.74675567921972    0.48636631017609
O           0.08301951162591   -0.55616178626044    1.65937171868982
O           1.23752014242788    1.42626039583253    1.00122145706516
O          -1.34954499389926   -1.84031266369184   -1.34502930640099
H          -1.73606074919928   -2.51192793619660   -1.90796914367784
O           0.87623310541520    2.35274656359261   -1.44281067033448
H           1.62126943426982    2.77367968999578   -1.87362702999610
H           1.19271623896334    2.07933866904103   -0.55077830008173
O          -2.34887004918273   -0.29459208667925    0.66565786045144
H          -2.20195618914615   -0.82943513574897   -0.13668385820315
H          -1.60709213485372   -0.54839153703610    1.25284439032513
H          -1.78180845607996    1.11076853533244    0.49589117059192
O           0.93260730389127   -0.36739127649680   -1.76419771273002
H           1.74308255876365   -0.60197558959008   -0.38059880837528
H           0.06247488351861   -0.80145736166882   -1.73297432044174
H           0.78381011340288    0.59091011836727   -1.83780082640359
O           0.22978260499453   -2.87328738217939    0.47385774767595
H           1.15518374006130   -2.93718092386049    0.22394175180260
H           0.18161144450111   -2.07972089879577    1.05919911496315
H          -0.78835570057982   -2.32463501401803   -0.67608679766768
N          -1.19603736626015    2.02100323285546    0.48975972443404
H          -0.19535807586391    1.74925984730168    0.83657697115776
H          -1.60268607433659    2.71913843137108    1.10294839973125
H          -1.07447527948556    2.39018935558407   -0.45319571749286
