    26
        -50.45763560  Gyration_radius:  2.42183066084 Dipole_moment: 7.920
 S           0.24328071078238    1.58186657799429   -1.38655573415143
O          -0.78374222564917    0.53315599275994   -1.47343474330348
O           1.62637452173446    0.85165585047742   -1.51069918708713
O           0.17145284321060    2.57628290584339   -2.39680860418123
O           0.20799386508775    2.12726114493840    0.00013950389636
O          -0.03836127146266   -2.64840961064976   -0.04173603107480
H           0.07439613888516   -3.59953807837634   -0.04347600487192
O           1.15207467561931    1.29531344986288    2.31932506074867
H           0.94652900493328    1.73615687298806    1.46255943750856
H           1.93182783881388    1.73195560035544    2.66458107032514
O          -2.23022879604205   -1.03263244751397    0.08418681646421
H          -1.92222488242602   -0.52499047257409   -0.69482040694410
H          -1.57236729002079   -1.74778033581299    0.16888559503818
H          -1.89843889932289    0.12720880169804    1.01699667986658
O           0.37383915651361   -1.60623195236046   -2.41104024292661
H           1.27406844383083   -1.31637725255625   -2.57981475254735
H           0.11384732140959   -2.34664633050067   -0.98129151880950
H          -0.12239471858391   -0.77814084331472   -2.20438623326812
O           1.81130774335059   -0.71136623048164    0.57462158919306
H           1.15859052754664   -1.43006706305094    0.51176298464376
H           1.72108178760660    0.26304498841364   -0.71712077292018
H           1.58049336104184   -0.16751808430446    1.34719163230401
N          -1.56558670513867    1.04283983264927    1.48871737027813
H          -0.90924653216753    1.54190359714310    0.77065534677015
H          -0.99211698471857    0.86115429926594    2.31234717114695
H          -2.35244964483347    1.63989879710993    1.71921394390248
