    26
        -50.45011625  Gyration_radius:  2.45258781269 Dipole_moment: 5.255
 S           1.84769349283829    0.37855005272937    0.95851922854571
O           0.59836894220856    0.78172235916629    1.56834115911077
O           1.79084233807953   -1.13106261330284    0.66131845539724
O           1.91482719620114    1.00919659366408   -0.46479886607049
O           3.04056942232388    0.68356600913936    1.65495606438394
O          -0.66187731321657   -0.88689749599856   -2.28269197436785
H          -1.03589197382675   -1.20348067207133   -3.10592917766240
O          -1.51620320194034    2.24743853788732    0.92544815663608
H          -0.75560862129069    1.73428204126119    1.27238176578896
H          -1.37038767553500    3.15667489609343    1.19191305778834
O          -0.33134632596844    1.66937526401913   -1.40459613702333
H          -0.92119943563290    1.90263592969410   -0.65558059933637
H           0.99890389963539    1.32918560049792   -0.81614789022194
H          -0.64198796033376    0.82014773632698   -1.76818198294224
O           1.97291320008067   -1.16545368804881   -2.17096158771222
H           2.17979185675987   -1.82869978928763   -1.50468594068580
H           0.31819624080654   -1.02492927826516   -2.34710488798106
H           2.20878059512397   -0.31638294736987   -1.76441920155936
O          -0.54017288304277   -1.94415795303002    0.24827776358347
H          -1.13828617334483   -1.50133753807191    0.91318588689185
H          -0.78158178517498   -1.60291895311950   -0.62961172341712
H           0.81301509593040   -1.47020431224530    0.52947995824429
N          -1.94058851691055   -0.59863077953190    2.06166395931582
H          -2.42437931078145   -1.02023796743024    2.84359060777484
H          -2.52746727714298    0.13280350267257    1.67818299880833
H          -1.09692384584485   -0.15118451537879    2.40745091671177
