    26
        -50.45011624  Gyration_radius:  2.45257665209 Dipole_moment: 5.255
 S           1.85416942671610    0.96522440999023    0.32629719595638
O           1.24958975196126    1.53436879195580   -0.99229075223484
O           0.81904776773340    0.98377913855814    1.33792543613404
O           2.16223613851783   -0.49753095884776   -0.04227113982603
O           3.05855707119471    1.64892535496842    0.61438832478665
O          -1.08174392091740   -1.12835532772806   -1.99802707821307
H          -1.59370833039298   -1.57393998732529   -2.67416491085778
O          -1.72746699188024    1.69970101066061    1.52765129007557
H          -0.77731946848461    1.45963431121060    1.56945654522210
H          -1.78420511521735    2.61832866246494    1.79579290492057
O          -1.26902238967373    1.43430011696964   -1.09660785867728
H          -1.41000951284682    0.51832324304892   -1.39823324447390
H          -1.61741347921143    1.50006187830750   -0.18136109609417
H           0.21778291923599    1.54308442682495   -1.00110024217309
O           1.39304213974113   -0.57502491890298   -2.77341728772238
H           2.00037406588103   -1.11792049847001   -2.26057604556718
H          -0.18601035393221   -0.95895723806749   -2.38881217844477
H           1.48168420326985    0.31911127472950   -2.40666997972917
O           0.18936836670936   -2.00561266225642    0.27202088368654
H          -0.25769638820616   -1.74615840516549    1.12568601040107
H          -0.42170591383040   -1.78709124883190   -0.45203455936715
H           1.34783707935723   -1.12686342394028    0.12864822750022
N          -0.86567562124904   -1.09578258666293    2.53454846346542
H          -0.13288569809384   -0.39731190629987    2.61650247802867
H          -0.90974875894373   -1.61838254207938    3.39951993506928
H          -1.73907696743789   -0.59591091511186    2.41712869813491
