    26
        -50.45011629  Gyration_radius:  2.45259940577 Dipole_moment: 5.254
 S           1.41472511414581   -0.31541651090812    1.54095081962681
O           1.72729831603245   -1.32629862044886    0.39704927374375
O           1.74179660752804    1.04350270589663    0.89528276793641
O          -0.00568928784522   -0.37308914347041    1.81353681898242
O           2.29547344082073   -0.55502901128147    2.62164714229845
O           0.15553986714512    0.27913331592353   -2.51682549017885
H           0.08326935836195    0.39309820012834   -3.46530713637874
O          -2.12459397148524   -1.69033132397252    0.91453843175300
H          -1.39590579096525   -1.19708002100949    1.34801117218425
H          -2.23859398577136   -2.49808771365723    1.41804773617682
O          -0.18632006678071    1.98562208679601   -0.39323559558206
H          -1.01470105838731    1.82571437668804    0.13982911330401
H           0.92172397600643    1.44856363429488    0.39336903040702
H          -0.25067209756197    1.44231188598851   -1.19703133636846
O          -0.27635479479432   -1.94440755466193   -1.00563195631107
H           0.89166887691177   -1.61768747103040   -0.13358475853366
H          -1.07718304591999   -1.88202621334837   -0.44159602474873
H          -0.30351487380518   -1.20136068158563   -1.63571434587732
O           2.66791368531399    0.25226188610167   -1.66841996655952
H           1.12488598560935    0.27196862305208   -2.30702859791997
H           2.82043869956255    1.04648852639500   -1.14636277560300
H           2.61290175912923   -0.46906758807482   -1.02150255214626
N          -2.25548334770291    1.39071622797278    1.16393939735303
H          -2.85431763006334    0.65819631998535    0.80161929308437
H          -2.83402696246791    2.07251461968966    1.63683752280914
H          -1.64027875301602    0.95978943453686    1.84758203655023
