    26
        -50.45011627  Gyration_radius:  2.45259823945 Dipole_moment: 5.255
 S           0.53481379917628    1.20764807976219    1.65263509917033
O          -0.84335371491075    1.69046377858144    1.16476213475742
O           0.92045522663433    1.94282354962911    2.79797771962553
O           0.51162442615614   -0.23537454468853    1.76370835951036
O           1.47321289292738    1.58466648026549    0.46714803063989
O          -0.46167098553893    0.45806814321686   -2.45227690840356
H          -0.65380724714712    0.50147293660438   -3.38983976419800
O           1.59953030306403   -2.31648224720066    0.53145518345528
H           2.43361276161861   -2.53755952270112    0.94909171477061
H           1.19502371301038   -1.61238792604057    1.08173404525195
O          -2.01805617403573   -0.01566017097407   -0.24049748429096
H          -1.54479975277381   -0.02209694244773   -1.08985328131889
H          -1.87711865907140   -0.90767176865906    0.18419727694171
H          -1.34372519090853    0.95988600197419    0.61307970371065
O          -0.18988054415071    2.85091263883751   -1.34195506250753
H          -0.36911290424301    1.39489297898913   -2.14002572450718
H          -0.92829144100583    2.99242314906832   -0.74085690865584
H           0.57362204470657    2.67758841700899   -0.76847648731384
O           1.83588909714914   -0.28110577822924   -1.19159541555243
H           1.66219883224819    0.79821345944090   -0.17362640021596
H           1.76015571843108   -1.13545685594347   -0.71440301987475
H           1.04618715211797   -0.18979644614829   -1.75541912358161
N          -1.45419026987957   -2.28185578862946    1.02710233188256
H          -0.92845675698882   -1.77674505058234    1.73419949907007
H          -0.79690321160416   -2.88022812206281    0.54091436315487
H          -2.13695913498097   -2.86663844907171    1.49082010847794
