    26
        -50.45011624  Gyration_radius:  2.45260380056 Dipole_moment: 5.255
 S           1.66242457336692    0.88562525428139    0.96341416664964
O           1.53114491770513    1.53510830026979   -0.44692860230888
O           0.35430362973470    0.89281599413445    1.58308459635069
O           2.04871103380174   -0.56826439117567    0.63565522077460
O           2.71840864741334    1.51390386189897    1.66424883025035
O          -0.38958700984955   -0.99789226099273   -2.29965505046655
H          -0.66046267772624   -1.39416423398951   -3.12874688842225
O          -2.10202147454184    1.68566130014023    0.97380037493691
H          -1.22182229636682    1.41169607220040    1.30898049037421
H          -2.22720205384792    2.59247470998872    1.25844797126371
O          -0.81687915025045    1.52536625983563   -1.36932844710236
H           0.55902293173139    1.57916724464325   -0.79013047104828
H          -0.86742077051268    0.62955858921459   -1.74993535991765
H          -1.44366178029553    1.56078054442611   -0.61484981120513
O           2.21183411660103   -0.49371341487437   -2.19713251800232
H           2.60907096295104   -1.08004390564168   -1.54518978520838
H           0.58739709331830   -0.84117799049953   -2.36825338478563
H           2.19125978530275    0.37903504163043   -1.77316202745051
O           0.05578118700073   -2.02133315361421    0.20882342869103
H          -0.64101133742884   -1.78648989249598    0.88356258362245
H          -0.28158615402049   -1.74907847881260   -0.66151843584472
H           1.21245845263587   -1.17675018813740    0.49800985282112
N          -1.66415769568708   -1.18128008267626    2.05164575920930
H          -0.98643086027275   -0.51237463104542    2.40493418269420
H          -1.99654116275344   -1.74123588136301    2.82572039646479
H          -2.44303292800960   -0.64739468734559    1.68450290766020
