    26
        -50.45011624  Gyration_radius:  2.45261019208 Dipole_moment: 5.254
 S           0.26369821600211   -0.24115817688211   -2.08527906418631
O          -0.25989393494526   -1.58056527360913   -1.53549736510854
O          -0.55404050705152    0.83113397966727   -1.55923577061868
O           1.67728804112216   -0.13070782711953   -1.43900379908899
O           0.40396981422864   -0.32385847959854   -3.49044684739774
O           1.01871238797926   -1.09022838102955    2.05177259108813
H           1.32855300452727   -1.41973508024027    2.89631109418022
O          -0.28976291734278    2.84672465065230    0.14397157820069
H          -0.46596194004202    2.16584166133106   -0.53977500468942
H           0.00825813869608    3.62762898250419   -0.32547275671841
O           1.72273742131931    1.17697712946702    0.71789824759612
H           1.45521951131249    0.49395558041853    1.35960803364986
H           1.69599684997741    0.45455663212487   -0.58936800770987
H           1.00689339619958    1.84771611523476    0.68582857170705
O          -1.35840451159792   -1.34056696125266    0.70079161551782
H          -1.91343374790013   -0.51147281296079    0.67875130979044
H          -0.75123156896348   -1.46676525153976   -0.62216425500097
H          -0.63345336079810   -1.18615992288129    1.33009167479499
O           1.95557867428384   -2.47772421974526   -0.00473198077300
H           1.43128743989890   -1.66500949740640    1.35664983250198
H           1.22185796964053   -2.94932650042961   -0.41199468489267
H           2.15714612551189   -1.74932524539211   -0.61355604425490
N          -2.70479919053114    0.93410069155226    0.43043170724964
H          -3.71347014197305    1.00961398761614    0.43917988429033
H          -2.38223821947105    1.03191140868164   -0.52765220516377
H          -2.32050694008223    1.71244279083550    0.95289164503525
