    26
        -50.45011622  Gyration_radius:  2.45260323999 Dipole_moment: 5.255
 S           1.05892825089441   -1.79275163973859    0.37560041810320
O           1.98984752287449   -0.62702979538090    0.75625177188842
O           0.92370746029827   -1.63735651025037   -1.16898371807744
O           1.69396483593831   -3.02397634358110    0.66168512373937
O          -0.24308438317479   -1.56192773353078    0.96442116483103
O           0.36005241729711    1.97875632737981   -1.54612101075868
H           0.38315641735967    2.77278810064325   -2.08164303733411
O          -2.69265639927330   -0.96765729412779    0.14034049470743
H          -1.83664391903573   -1.24066825540395    0.53389536234609
H          -3.17952909942462   -1.77573613139465   -0.02987365348597
O          -1.08821802409330   -0.30040164612064   -1.89626094958405
H          -1.79494797762570   -0.41889032490289   -1.22553609063388
H          -0.75211851872998    0.61029059397708   -1.80930855512084
H           0.06729976283236   -1.13988978665256   -1.45846227533540
O           0.74811534163713    1.51362301057236    1.13190228300770
H           1.46196187766259    0.25183161418175    0.94985440713067
H           0.47528050829060    1.81329246161148    0.24805587469726
H          -0.08248650221366    1.29724101094591    1.64101307577388
O           2.55443164119455    0.50882829863008   -1.78307203413766
H           3.02975279852001    0.53579074579667   -0.94645739511896
H           2.15446210660948   -0.37470140652417   -1.81839012536485
H           1.21268332402224    1.50067776845781   -1.71422958663141
N          -1.42368798664690    0.69097382830087    2.42292099045663
H          -2.27505863956519    0.72880372724786    1.87502493513034
H          -1.64828492972240    0.92841805570942    3.38019790794528
H          -1.09692789592612   -0.27032867584650    2.39717461182885
