    26
        -50.45011628  Gyration_radius:  2.45260532183 Dipole_moment: 5.255
 S           1.37951799695349   -0.79599409216124    1.39242925561360
O           2.28443472636044   -1.26041043192759    2.37553555207453
O           2.18223832213178   -0.34655462155171    0.13474715724081
O           0.54101783557053   -1.97261477020786    0.86046823231570
O           0.48820310681418    0.28247281977911    1.76349149800408
O          -0.40445775920617   -0.33599633629315   -2.48188788701353
H          -0.65238938002897   -0.37325483421381   -3.40653330188210
O          -0.11230415050084    2.71735018674505    0.90092174203828
H           0.08036517268294    1.85405002756114    1.32489853264247
H           0.45536266139878    3.35969221985544    1.33002771976898
O          -1.60953754406315   -1.22817662780847   -0.18183431300118
H          -1.35932032692491   -0.81945593602278   -1.02785457868037
H          -0.37113732565482   -1.65837778752971    0.46329124161571
H          -1.99233662314984   -0.50819364982364    0.39354507613715
O           1.09353565146729    1.51961657589277   -1.16770472586596
H           0.57269493610984    2.06782040965969   -0.54196790912296
H           1.75913884365191    0.45539549833665   -0.35777536094805
H           0.46098907342028    1.02297279497961   -1.71823454104311
O           1.42825628414236   -2.13863545415922   -1.83061714435446
H           1.02219763900960   -2.78686765255940   -1.24622568974369
H           0.28596070062959   -1.03515760644890   -2.34699802612330
H           1.99129443513995   -1.59675981117435   -1.25510319094627
N          -2.39665734164465    0.70688678572689    1.46008480071197
H          -1.58273161220548    0.56211375182035    2.05009365761396
H          -3.22476560453829    0.66785909798750    2.03967738678413
H          -2.31956969756518    1.64021943353808    1.07352480616278
