    26
        -50.45763560  Gyration_radius:  2.42182739685 Dipole_moment: 7.920
 S           1.31221060043968    1.15326833624590    1.19664540827087
O          -0.09169384956929    1.60899879891434    1.40387389114985
O           2.23751162818496    1.70485551544167    2.12086325182687
O           1.29403186948611   -0.31586614656835    1.13810682327192
O           1.70020267597597    1.64413760985236   -0.24214569542211
O           0.19072905518400   -1.84672849382692   -1.88950720482497
H           0.26655996262913   -2.41759924063699   -2.65482820380028
O          -2.17566047699286    1.90155933560544   -0.18786488728196
H          -1.39056113915435    1.98868737618970    0.40092445941621
H          -2.41589404469641    2.79206328180554   -0.44701461718437
O          -0.23261022672252    0.86790380782680   -1.81934162077463
H           0.96821698376953    1.37058736411132   -0.85416218135655
H          -0.23350974167286   -0.10216851466131   -1.89331477223264
H          -1.06288014561280    1.13348960144176   -1.38804656943145
O          -0.38140494658335   -2.31572882885047    0.73414262197368
H          -0.31686261514216   -2.32328693866856   -0.23907912489929
H           0.40579450652308   -1.80497052270070    1.01500696994649
H          -1.31526532225836   -1.20821642856688    1.21037911948352
O           2.53008842624563   -1.01735594779462   -1.04733163517582
H           2.19787013330654   -0.79283322677348   -0.14515194158004
H           1.12312704160221   -1.60237048569265   -1.62893609292938
H           2.82431461117173   -0.18006435266373   -1.41513002307141
N          -1.78021253397758   -0.30298896938742    1.57925380350897
H          -0.99638805603785    0.45865705185751    1.61088474061292
H          -2.16914031036345   -0.44534676446203    2.50511997607136
H          -2.48857410573200    0.05131680196322    0.93665353443084
