    26
        -50.45011624  Gyration_radius:  2.45260383918 Dipole_moment: 5.255
 S           1.35027896696051    1.27585543341782    1.01261996008882
O           0.08072039554514    0.91591845877981    1.60750683714505
O           2.11759781617984   -0.01219437958215    0.66243431683175
O           1.06697496979273    1.90100560066617   -0.38633424712455
O           2.18935132763758    2.14713313038486    1.74599371676797
O          -0.07686662797981   -1.00904780836542   -2.32635486345964
H          -0.22027974954714   -1.44294839009630   -3.16836336693687
O          -2.49029198467029    1.03401349672759    0.96789716234870
H          -2.85865264793883    1.86645585507474    1.26849413957640
H          -1.57318762771810    0.99861014903617    1.31407003908455
O          -1.17959227691070    1.28266539410768   -1.35325787547566
H          -0.98225391034315    0.41584555941471   -1.75269325773838
H          -1.80247329643567    1.12980900349616   -0.61029347451792
H           0.12347342958255    1.69027741795771   -0.74699786331756
O           2.29101252509687    0.17373698363323   -2.16442693337987
H           2.82307940095517   -0.29994142946920   -1.51699518131124
H           0.82261049434618   -0.59368809827030   -2.37313685237009
H           2.03075311495437    0.99817303799635   -1.72344706866423
O           0.59508479100833   -1.93665425129244    0.16892352497055
H           0.20831341673672   -1.74384319039572   -0.70208853877702
H           1.47785982806870   -0.81961513315748    0.49688282526017
H          -0.14797354503458   -1.91428600141991    0.83475386900069
N          -1.31130125193433   -1.63523247882708    1.99502506152223
H          -1.49099489161269   -2.28300713814274    2.75087859905481
H          -2.20015454840863   -1.32108993818645    1.62391326380849
H          -0.84308809833047   -0.81795129348747    2.37499620761339
