    26
        -50.45011625  Gyration_radius:  2.45260650183 Dipole_moment: 5.255
 S           1.85551688807700    1.01495163502887   -0.05595572252604
O           2.13148833955091   -0.45639717487519   -0.41565860838666
O           1.00667677717510    1.51316979048324   -1.26400603468853
O           1.02075814164084    1.05804079755201    1.12579389076375
O           3.07307119993273    1.73415148056504   -0.01970234349609
O          -1.39467914659003   -1.23688917546811   -1.72078734927009
H          -2.00835185347937   -1.72194017437359   -2.27390270261860
O          -1.46771929010154    1.73178667200023    1.74775172453812
H          -1.49994474746678    2.66018229158041    1.98448267789576
H          -0.51954055223742    1.51243309055055    1.62527595932737
O          -1.48536371909293    1.35896672372275   -0.90335002828358
H          -0.00947186410144    1.50113382033279   -1.08498731112580
H          -1.65363186942673    0.42793688740601   -1.13735761270479
H          -1.66373458833233    1.45838881199309    0.05666724761207
O           0.88255626495930   -0.66989991746385   -2.95563266838787
H           1.58730435553342   -1.17758189659154   -2.54065774746588
H          -0.58957746287209   -1.06740503163302   -2.27472780015132
H           1.01178181249107    0.24117535338532   -2.64723672713748
O           0.29021387092151   -1.98746452776583    0.31296637876833
H           1.37907720319537   -1.09337015955172   -0.07409468930721
H          -0.00179795133159   -1.69936292972312    1.22273121208848
H          -0.44764048864393   -1.81326636218733   -0.29586264304119
N          -0.36186471781311   -0.99923086697558    2.69164926466593
H           0.35407770499622   -0.28340834844321    2.61045673574061
H          -0.23371255328296   -1.48364659368592    3.57035954253103
H          -1.25549175369980   -0.52245421586161    2.71578537465700
