    26
        -50.45011623  Gyration_radius:  2.45258413013 Dipole_moment: 5.255
 S           1.99067314020682   -0.52547708611489   -0.48701749269245
O           1.71228438732737    0.54922641116340    0.44181643814129
O           1.24288276042478   -0.21710175635330   -1.81891027362100
O           3.34776147436812   -0.80345297787884   -0.77348829191662
O           1.29168219285164   -1.80437200411373    0.00923977616050
O          -2.27889200124777   -0.69762815225607   -0.86913957165533
H          -3.18870970604875   -0.87554337411931   -1.11075479663428
O           0.32198147306426    2.80734146044241    0.47121519028037
H           0.90612918776606    2.02207372613066    0.53671194719765
H           0.87687656509651    3.53052638242626    0.17441149283948
O          -0.55414175969877   -2.30027498382957   -2.08927843265481
H           0.13848495558758   -1.65650698715328   -2.30765557817653
H          -0.15921098088353   -2.87971276222454   -1.42983478269987
H          -1.72090196708058   -1.33670561482796   -1.38297871272024
O          -0.68211221609233    1.39413427630623   -1.56884618435135
H           0.49541567477416    0.48689814423496   -1.71699878055029
H          -1.39422148087508    0.79518580202204   -1.27895701088207
H          -0.48241783161237    1.99797312519814   -0.82127203260328
O          -0.77191444651605   -1.31919364074784    1.34018670610084
H           0.45513369068950   -1.59387258930657    0.59613027496336
H          -0.57224011576831   -0.54569249884400    1.93834557044415
H          -1.43320558113934   -1.02056843206399    0.69291514638593
N          -0.03373098449099    0.78482123241045    2.78520299068094
H           0.06043506517829    0.78609586619082    3.79235211780751
H          -0.46293142710535    1.65784132585173    2.50222360459591
H           0.89488992122320    0.76398511745990    2.37438069556191
