    26
        -50.45011627  Gyration_radius:  2.4526035102 Dipole_moment: 5.255
 S           1.82589516663230   -0.18749542837194    1.05192691436308
O           2.16616331864935    0.14653624758811   -0.43157323319328
O           0.80443584367832    0.73699172784664    1.49592338030586
O           1.21203968670154   -1.59601035741203    0.95316613001248
O           3.02553402032898   -0.24071039066052    1.79961353042498
O          -0.88273060775515   -0.92003550242586   -2.19338457036866
H          -1.32500527249691   -1.19874384092304   -2.99622038258473
O          -0.58113235323093    2.76235176437520    0.49014469338858
H          -0.08081720890911    2.06462565917863    0.96450732611896
H          -0.11000161939188    3.58273375371754    0.64504854940171
O          -1.24069791197596   -1.54404399372648    0.45631594207617
H          -1.31049020586849   -1.27732701923105   -0.47610669306566
H           0.18274520647355   -1.56609531611467    0.78526336855305
H          -1.64586197070634   -0.81503359938003    1.00434860684851
O           0.36285463564432    1.43614389640750   -1.63537552466036
H           1.44913482119800    0.72395696957634   -0.89763427165523
H          -0.23488246066084    0.71649001052138   -1.90861965878307
H          -0.11623887419722    1.98286843221991   -0.97589173583479
O           1.44766590408921   -2.13069234683939   -1.82454056870660
H           1.36996234507335   -2.71296725834907   -1.06196957817191
H          -0.02591502390840   -1.41822438543034   -2.15631396459109
H           1.97461748712205   -1.37691069387952   -1.51471966938882
N          -2.08043558355570    0.48486313142683    1.95243853536579
H          -2.70947483574480    0.39688230804924    2.73967555625567
H          -2.33689011413552    1.31299467173973    1.42814189482050
H          -1.14047440305300    0.63685157009793    2.30583543306640
