    26
        -50.45011624  Gyration_radius:  2.45258796896 Dipole_moment: 5.255
 S           1.87689163234214    0.90061502286599    0.37745205323220
O           3.09106870498479    1.55966901686887    0.68148175317318
O           2.08363104138863   -0.62389230647467    0.43817541427600
O           0.71495747166313    1.24606980445312    1.16852629893112
O           1.52858255758869    1.14307815349001   -1.12187128694285
O          -0.89328289479955   -1.54159758205286   -1.80571724577820
H          -1.34569313489324   -2.11545727800344   -2.42527483840849
O          -1.74614615226878    2.14243451648833    0.75302324450224
H          -0.84125026882272    1.86338445531947    1.00891504047854
H          -1.74683988919009    3.10088272256450    0.77193093594233
O          -0.94608020711245    1.17386324864807   -1.61103002279841
H          -1.41342224640657    1.49747272613058   -0.81088183480367
H           0.51496483605094    1.21226221814367   -1.30223191629820
H          -1.13484348452122    0.22137870680319   -1.69497634756702
O           1.71020041027542   -1.36224496798474   -2.27670241456303
H           0.06168543124174   -1.53515684040102   -2.07354903413036
H           1.83586773510043   -0.41059552895807   -2.13380689452764
H           2.17933069484812   -1.78876774516593   -1.55240141002183
O          -0.05686762266077   -1.87333544732862    0.78828100722837
H          -0.53229883813474   -1.81410405009285   -0.05780039630784
H           1.19344534431957   -1.13537937903072    0.62387341899779
H          -0.59307167326095   -1.37318128637435    1.46525436092952
N          -1.32724766099436   -0.34153475623054    2.54878768470496
H          -2.11921946105233    0.16348361748372    2.16902156592075
H          -0.54643821615678    0.30746021019164    2.57470833395720
H          -1.54792410953097   -0.61680723135299    3.49681252987188
