    26
        -50.45011626  Gyration_radius:  2.45258994264 Dipole_moment: 5.255
 S           2.05288515923659    0.50873879115030    0.04979131311500
O           1.78295507789479   -0.24166257739746   -1.28890851589976
O           1.83159514468682   -0.58819569807133    1.10726354899633
O           3.40207248491722    0.93300395758186    0.07686128265094
O           1.03219013181753    1.52279583274885    0.20821762675642
O          -1.28631213032014   -2.12170557865635   -0.52894212879369
H          -1.88048113158216   -2.85175606184969   -0.70727428676147
O          -1.08574762768698    2.40048589570357   -1.12469120190007
H          -0.29295602328211    2.18252730966349   -0.58975314691208
H          -0.82143760677981    3.10134945881755   -1.72295211439569
O          -0.57083945578093   -0.80963944781258    1.77434191345441
H          -1.01233440289892   -1.23037022905694    1.01705291953848
H           0.83481317339179   -0.64804454104219    1.40935253127806
H          -0.94718878913328    0.11033397811314    1.86328198414526
O          -0.58696256916582   -0.03115955667853   -2.12738064731133
H          -1.03167540887176   -0.73201798933272   -1.61658596211590
H          -0.94588431778935    0.82951469279313   -1.82109474512783
H           0.82791044202791   -0.10134141735617   -1.65366968064701
O           1.26489302967710   -2.84533398973609   -0.51821991333026
H          -0.36708109161496   -2.49298738105946   -0.55831865777934
H           1.64859646286855   -2.09254495547873   -0.99566365522661
H           1.59867309705796   -2.76846475837301    0.38137274635560
N          -1.36698974821879    1.72318638542352    1.88125215512020
H          -0.43733378472773    2.04502741658906    1.62896970859350
H          -1.65428126874238    2.20055658228645    2.72549067129180
H          -1.98907885697856    1.99770388103276    1.13020625490254
