    26
        -50.46954179  Gyration_radius:  2.39864235771 Dipole_moment: 4.983
 S           0.37004549684355   -1.43562011453035    0.57719880890591
O           1.83376457471644   -1.67468240446979    0.09194544241961
O          -0.43255140686641   -1.30391276788701   -0.65700639905798
O          -0.06803225941047   -2.54706687478057    1.37554604516801
O           0.35795621109846   -0.17222421778283    1.31813350045866
O           1.18072515311666    1.96220409177478   -1.63726549071218
H           1.47611955128235    2.58159490608488   -2.30578568948132
O          -0.80654413394919    2.00035205231879    0.33695730272034
H          -0.24549530876864    2.17111047293205   -0.43571138350040
H          -0.32125075002068    1.30742562956081    0.83309731882943
O          -2.05288811665140   -1.18745094999812    2.45613632677011
H          -1.53647086592970   -0.58377313021969    2.99702577464956
H          -2.52989645847211   -0.39609211048574    1.10941506777740
H          -1.39224968205280   -1.83735472164873    2.12083226751843
O           2.64658799259671    0.77328959041648    0.37845984829293
H           2.27257958017493    1.31756225455753   -0.33882864552147
H           1.95206393122903    0.74119552488469    1.05569570742640
H           2.29306962920631   -0.79148522237266    0.15228994963479
O           1.14787556508794   -0.49916472436912   -2.58427008371328
H           1.95618319053453   -0.99425974652864   -2.43122400848002
H           0.49519193999432   -0.87114359788217   -1.94857301210800
H           1.13005519203910    1.07509498064210   -2.07659573098809
N          -2.49995916871656    0.00625249511168    0.13175105343391
H          -1.76928149950704   -0.59831646330813   -0.35469293220839
H          -2.05484503491643    0.96608206651794    0.16398707782889
H          -3.40275333266630   -0.00961701855070   -0.32851812606601
