    26
        -50.46954182  Gyration_radius:  2.39860812757 Dipole_moment: 4.984
 S           1.07559298833479   -0.73273002649117    0.91464531657621
O           0.46029951614160   -0.67160393720400    2.34747631031802
O           1.14564052546574    0.64143945290535    0.41246987758608
O           2.36320054386378   -1.36860330110671    0.96247160323789
O           0.11307315049970   -1.51478650456553    0.11053134186280
O          -2.55491805999271    1.14806249443791    0.28858066513268
H          -3.47626844913591    1.40967162302830    0.31091182466663
O          -0.45011591365300    1.48988806250904   -1.52916584380798
H           0.19348552073618    1.34820500057319   -0.80274831395521
H          -1.31372717217894    1.43104509349698   -1.09147580620070
O          -0.57210341560650    1.69959734882107    2.12902773809451
H           0.01628199573909    0.21843559314259    2.42041323279591
H           0.17343644220813    1.77890260838253    1.51278106294369
H          -1.36285671504340    1.64928663537907    1.56071779637529
O          -2.24962426307199   -1.30035349668436    1.22051247172485
H          -1.39504293849593   -1.50046843628226    0.77553009928013
H          -2.05873044443689   -1.34547688165750    2.16039423451080
H          -2.52211252653473    0.20360731912141    0.58751349554655
O           3.09267392669135   -0.41234548181857   -1.38482373630723
H           2.96097635539410   -0.87602464652325   -0.52533494179088
H           1.66597845296201   -0.61668828206870   -2.15347316355938
H           3.17717891509746    0.51389187277081   -1.14276461978149
N           0.63019006280894   -0.77470437875749   -2.29733214068004
H           0.33195616296818   -1.25344900227837   -1.39303961896768
H           0.42642770502366   -1.32206536681855   -3.12559284109579
H           0.12910764416026    0.15726661769603   -2.26822607456299
