    26
        -50.46954165  Gyration_radius:  2.39861845714 Dipole_moment: 4.987
 S           0.42056948111545   -1.48779202830816   -0.37791525304547
O           1.47130517796945   -2.34295951348454   -0.85674545981839
O           0.73710942026339   -0.93241729330211    0.95481919994405
O           0.11094794415805   -0.40203939342398   -1.31091476891186
O          -0.88781852163606   -2.31460635435658   -0.17837119019111
O          -2.27358228882222    1.34723108471180    0.97381583808774
H          -2.96437523299601    1.81610036739229    1.44367836148648
O          -0.02441399190766    2.12217549729723   -0.50533711742677
H          -0.79161381362127    2.08118159411978    0.08690824008920
H          -0.03168674223698    1.25436181198069   -0.96202322439381
O           2.93066301024658   -0.32228477585851   -1.71914788753383
H           2.66599884550343    0.68550956158751   -0.46158174222935
H           2.53363594296117   -1.17349647119679   -1.42108161442153
H           2.37230242793847   -0.04526684948816   -2.45067373031159
O          -1.48699795670495   -0.77420382688622    2.32885636691069
H          -1.98260041160254    0.60637915955957    1.56466830156889
H          -1.94847636573098   -1.58446705739972    2.09990091474335
H          -0.59527566648362   -0.86336390175681    1.92206470158007
O          -2.52388403675256   -0.50306665338897   -1.06062865799248
H          -1.72404807044047   -0.27125413428244   -1.55910198486210
H          -1.63419512167026   -1.73146096125540   -0.49050496258700
H          -2.61310511806844    0.19842598761397   -0.38934661569299
N           2.21500574878662    1.09800668248798    0.40165784275628
H           1.69567087515618    0.26769337989988    0.82209294570405
H           1.44193370996109    1.75870970976676    0.10795486846886
H           2.88693076459953    1.51290437798798    1.03695660807917
