    26
        -50.46954159  Gyration_radius:  2.39863923773 Dipole_moment: 4.985
 S           0.58654292283274   -1.47601382162184    0.10293467816616
O           1.74867690225691   -2.28011745532624    0.36281738588048
O           0.14069606809531   -0.75794661532389    1.31556629282120
O           0.79424603115785   -0.52578636729541   -0.99221046818548
O          -0.61313769891529   -2.39004480060312   -0.29789082281521
O          -2.47196072948796    1.23485311246664   -0.54633766064927
H          -3.31622778505339    1.68681304592645   -0.57432412189316
O           0.20324941977672    2.04694125326714   -0.72665144005462
H           0.45544411503613    1.13864416737376   -0.99714902348287
H          -0.76004235491922    2.00088542071567   -0.62175705427254
O           3.40225849517181   -0.23948670372789    0.11995256147951
H           2.92531144146248   -1.08664771832316    0.28065997850811
H           3.30739754170518   -0.09132918816688   -0.82489169214467
H           2.49368854847847    0.86679888521924    0.90560664685060
O          -2.47630235846610   -0.65445121015397    1.29387760583343
H          -2.73073781059444   -1.52197804366590    0.97054409276292
H          -1.50266367378628   -0.70617264010801    1.42754130924301
H          -2.52170693958496    0.58905467439909    0.20404953327481
O          -1.57290955388972   -0.83337697346773   -2.13998696114297
H          -2.01719122229292   -0.07610045219673   -1.71584745653273
H          -0.63534469245798   -0.58494584505187   -2.17480334532658
H          -1.09370638618048   -1.91148177984317   -1.02906782555547
N           1.64704536208016    1.32603072788369    1.34275231251119
H           1.13220609548569    1.88137512969854    0.60328123780231
H           1.87440467249527    1.86282869944656    2.17180578105114
H           1.00076359958046    0.50165450847762    1.53952844587899
