    26
        -50.45300979  Gyration_radius:  2.43486610122 Dipole_moment: 5.195
 S          -1.93394099754365    0.70462172820397    0.39105698255733
O          -2.16550904396805   -0.73122687140718   -0.10678506596889
O          -3.12424620603812    1.23314060751302    0.94248664554277
O          -0.85420689229440    0.56585168267546    1.48811069366116
O          -1.34871228683058    1.46507465239587   -0.70305020110002
O           1.32239728764073   -0.91954086563292   -1.67554254727487
H           2.00024844413850   -1.01533973979901   -2.34551895948302
O           0.78368574847102    3.07937521866042   -0.64914426024256
H           0.55643304968023    3.88538974057299   -0.18333445023921
H          -0.05764166132243    2.61038424403914   -0.81299064681543
O           1.46278813826041    0.75197798175062    0.46494699852201
H           1.42300403724612    1.65997054773683    0.09346292312407
H           0.08441359776085    0.62708317662690    1.07923012513791
H           1.49863273865490    0.15713483737527   -0.31095560447191
O          -0.98633903058168   -0.22256993459470   -2.70033860728487
H           0.49087914426060   -0.64779629390101   -2.15085610939937
H          -1.65930419016882   -0.88181162519627   -2.51118526911459
H          -1.16819373364839    0.51515608559357   -2.08082889117965
O          -0.17280736024633   -2.21171705649031    0.22730341329203
H          -1.35108938474722   -1.36134385554604    0.05568366446060
H           0.46589697400722   -1.94016178050108   -0.45257139505398
H           0.25387757224478   -2.00832655031669    1.10530853240268
N           1.02270477442366   -1.47007884334671    2.50156347341245
H           0.28644982264351   -0.96189804795946    2.97660039602139
H           1.70675774727689   -0.78862178551852    2.19340166463569
H           1.46382172067778   -2.09472727293400    3.16394647485857
