    26
        -50.46954186  Gyration_radius:  2.39879407172 Dipole_moment: 4.980
 S          -1.45293077613528   -0.64004103264197    0.11205434444191
O          -0.20333482171374   -1.35032553850311   -0.16930571833465
O          -2.11916068897337   -0.31253415140007   -1.26060594684731
O          -2.35538194426400   -1.41125186923286    0.92165952971436
O          -1.15936573960247    0.67244601952306    0.72542596500258
O           1.46851737333109    1.54477720716712   -1.84095700805508
H           1.94365428105501    2.18967822242334   -2.36654379987756
O           2.16033690547746   -0.21295648296690    0.22845681582505
H           2.12953914260145    0.50079732738453   -0.42766751794856
H           1.38289270137344   -0.76929236738682    0.00982271653070
O           0.01013545023815   -0.63229695785547   -2.71002153932336
H           0.60332044682545    0.12978242901922   -2.57512810317269
H           0.20832361803993   -1.23585681044564   -1.97634385290167
H          -1.40005688203918   -0.40184988252922   -1.94576582228734
O          -0.92451283179642    2.44239073636942   -1.19060256165346
H           0.61251244651707    1.96994249576116   -1.57820949636735
H          -1.62024600526458    2.19837754641564   -1.80567786481741
H          -1.06649638905556    1.86985332905310   -0.40281940764703
O          -0.43913449445352   -2.25547338086048    2.52543929583055
H           0.38908568505201   -0.85130132873134    2.62914134624786
H          -1.26484356206342   -2.00274015761222    2.05069390771035
H           0.01925537822631   -2.83407502684949    1.91002536948963
N           0.71856810995679    0.12593503526834    2.39476925559888
H          -0.09078156677598    0.52274709782770    1.82583921197886
H           1.51379261396459    0.06730223019613    1.69862782214227
H           0.93631155948825    0.67596532060793    3.21769306872790
