    26
        -50.46954176  Gyration_radius:  2.39849510707 Dipole_moment: 4.981
 S           1.02352341703210   -1.11558412840961    0.48838234316326
O          -0.34965874592288   -1.32917698606629    0.02566689581173
O           1.96419093989151   -1.32947879520574   -0.73823479083978
O           1.20980466183421    0.29747267091310    0.87999639109850
O           1.39282935674149   -2.01073516675358    1.54999270328514
O          -0.40178866677264    1.61753267482323   -2.26917484884062
H          -0.48311310332617    2.28591518046798   -2.95074995903748
O          -2.06201795729017    0.68246897510910   -0.21550067652516
H          -1.64021693464484    1.19370801549899   -0.92376061847288
H          -1.56091182882708   -0.16047298872948   -0.20157755477129
O           0.13834399052876   -1.07389598933780   -2.56482045753952
H           1.38441069777499   -1.26363251714598   -1.54712044509784
H          -0.39949602245106   -1.40601268544287   -1.82836048586317
H          -0.09949645852763   -0.13154404925088   -2.64378618739020
O           2.01935349819549    1.63098910471705   -1.22367701207828
H           2.63659245177773    1.02825491176066   -1.64515281410326
H           0.50285480957657    1.72165961096360   -1.87761376667221
H           1.79130307223702    1.20567360352850   -0.36597219079155
O          -0.91945690984212   -1.73903484449168    2.78944564601443
H          -1.47704345913795   -2.19893142679593    2.15598864517021
H          -0.00168631064640   -1.91639592825163    2.47741930355868
H          -1.09858549372204   -0.13125137429003    2.56228077388886
N          -0.95520956762622    0.83576173593613    2.15880686578146
H          -1.04832991312592    1.56933299444382    2.85186608596101
H          -1.58790023380991    0.95974244579285    1.31921475879844
H           0.02170472007168    0.77763493619625    1.73644139547745
