    26
        -50.46954172  Gyration_radius:  2.3986597285 Dipole_moment: 4.985
 S          -1.46174215429128   -0.29055616851917    0.55698586207370
O          -2.24013505826854   -0.76286354923651    1.66861652169985
O          -0.77373819810614    0.97813198063262    0.87581768483305
O          -0.49017416075410   -1.28224483306541    0.09007159700701
O          -2.39970969997608    0.04117239780410   -0.64525169713785
O           1.18000105454764    0.99867951729494   -2.35362482832980
H           1.61247406767059    1.47086410380952   -3.06618096002773
O           2.06240280227027   -0.65869120152630   -0.27451384476942
H           1.98954167514652   -0.02247945350421   -1.00314531961224
H           1.16501035222586   -1.04920695454802   -0.21101206380440
O          -0.83953959447035   -0.87888005380066   -2.50405256456476
H          -1.92209830534021   -0.27085939643189   -1.46332018813517
H          -0.10057221875291   -0.25641105683774   -2.63507131258857
H          -0.56692297874847   -1.43616212590581   -1.75760998492804
O          -0.73784149033180    2.45952023727224   -1.28376689860821
H          -1.60653382439746    2.31628798153846   -1.66683778257592
H          -0.76667404138870    2.01109120414042   -0.40821673317716
H           0.52136818378841    1.62507429788046   -1.95825862130566
O          -0.15601737290097   -1.85031186138182    2.86460394800177
H           0.91558916140310   -0.65861208385600    2.55252763180993
H          -1.01673350140123   -1.46905284777972    2.57297353068222
H           0.00340302754031   -2.57093379269616    2.24900602810581
N           1.34712098020468    0.19538860832233    2.10154329458579
H           1.87733781429510    0.76015776450747    2.75507265210594
H           0.50400348124374    0.70406935775601    1.69375373154578
H           1.90017999873482   -0.10317207187608    1.24989033712294
