    26
        -50.45300981  Gyration_radius:  2.43486012587 Dipole_moment: 5.195
 S          -1.55326762892034    0.54790605606595    1.29435696001837
O          -0.18949453734057    0.02173160480858    1.79649051975532
O          -2.14666430003842   -0.62131165506362    0.49191925245309
O          -2.38708974554064    0.86608492558346    2.39154626940908
O          -1.28574343428958    1.63463690306409    0.36416481698441
O           0.50727546393528   -0.29250654010614   -2.24922904202824
H           0.88677078346911   -0.15741169813520   -3.11831772400767
O           0.93784293558763    3.10227212212953    0.12336842731836
H           1.00445859219956    3.69745912332735    0.87142215554093
H           0.03470146308751    2.73030247601753    0.14808037445553
O          -1.89014778344994    0.74558760776861   -2.04671210009702
H          -0.39032142598491    0.13797664861112   -2.26198116849643
H          -2.54066333395281    0.06990797906391   -1.83806506585731
H          -1.73659879922993    1.22311473579536   -1.20437715054650
O           1.62495489691750    0.52422726754894    0.09176581817070
H           1.30173959473462    0.23781824355231   -0.78608149570052
H           1.58771427490695    1.50520901647941    0.07374999122619
H           0.54534544279748    0.21003521011360    1.10635911851693
O          -0.39572036656709   -2.14920707264711   -0.44272734681596
H          -1.42546462882415   -1.27824795021466    0.12427586990734
H          -0.00329097824429   -1.66513643272111   -1.18810125304663
H           0.33537861629173   -2.27068508405769    0.22450227578518
N           1.61193633652676   -2.26361517392142    1.31980175792017
H           1.16888642136042   -1.94433828532561    2.17286639984020
H           2.23469484896764   -1.52598201974970    1.01109013180246
H           2.16276728160122   -3.08582802798704    1.52983219749272
