    26
        -50.45300970  Gyration_radius:  2.43482375777 Dipole_moment: 5.196
 S           1.28044688134078    0.08081844479907    1.65574675574234
O           0.12666340015688   -0.81564524709767    2.13342850682098
O           1.70437795659334   -0.52250325111596    0.29743261325669
O           0.73552113745244    1.40460450854296    1.39400549105487
O           2.35755959801570    0.02700323756032    2.57075835733374
O          -2.19125744600552    0.41107782887225   -0.65630857577101
H          -2.95039057277359    0.81369773717865   -1.07959003656065
O           1.10155250425464    2.95541614149927   -0.75466028968968
H           1.99426740315333    3.30354289904720   -0.74337630245571
H           0.94940958318121    2.56107446354974    0.12625510005941
O          -1.08644206353369   -1.93170878068392    0.24747900545222
H          -0.43272340629020   -2.22088172492346   -0.44782942005432
H          -0.36475464901890   -1.30672238628425    1.35606236575988
H          -1.62442718099316   -1.23350506244396   -0.16112292877979
O           0.36203030129477    0.52965092947998   -1.58427512370870
H           0.63185899354254    1.46935999754320   -1.49375870117909
H           1.15628763548391   -0.11112679473690   -0.46565720028317
H          -0.58260217448408    0.50712497390466   -1.33048716129943
O          -1.86797689133623    1.25589837984706    1.80299051682515
H          -0.91313653561678    1.46476888837733    1.72676612722413
H          -2.14241310817060    0.79356775162876    0.26155545618042
H          -1.91716571636620    0.52648032695976    2.42649937705991
N           0.70776467536702   -2.49644553161237   -1.65316204646617
H           0.67771210123229   -1.67966097763362   -2.25248330444594
H           0.70633043617576   -3.32464524205595   -2.23421646548916
H           1.58150713734804   -2.46124151019780   -1.14205211658774
