    26
        -50.46954176  Gyration_radius:  2.39881062886 Dipole_moment: 4.985
 S           0.65869288575879   -1.28818914920725   -0.66404553005116
O           0.69020992565300   -0.95564762525669   -2.18841450087151
O           1.35960962053434   -0.20666497628760    0.03173866047556
O          -0.77232363532244   -1.28157079856351   -0.29369938197472
O           1.25842571246168   -2.57308137824968   -0.43158572393082
O          -1.13270836242567    2.43782182376058   -0.83969519004426
H          -1.65917808909071    3.19977284130859   -1.08479630846326
O           0.05959446427525    1.55107609348876    1.53487414535720
H           0.68520214943124    1.00592505263766    1.01228645532565
H          -0.47837160646267    1.99862301862637    0.86305769637926
O          -2.05300170587837    0.24973356262878   -1.98873119012572
H          -1.64227536011158    0.04165268375600   -2.83127957125879
H          -1.67496086825149   -0.39877288119399   -1.35221095517385
H          -1.56977930414315    1.64840564621482   -1.25011556038011
O           1.24867794449409    1.56642470043733   -1.93275500354784
H           0.90677571867610    0.01543512516530   -2.25567674339615
H           0.45144082093985    2.03924180236930   -1.63016501298729
H           1.65371494966789    1.21646833697813   -1.12320286165334
O           1.61744538919960   -2.11197504573792    2.14038223259829
H           1.51949484676451   -2.45200374754258    1.22062014048254
H           2.30541186099437   -1.44424176116309    2.07335510731578
H           0.19381598553908   -1.36345248906744    2.42693616381072
N          -0.71454327028766   -0.85473286925875    2.24128929132048
H          -1.45097136469400   -1.11586029006831    2.88677606295448
H          -0.93154694596233   -1.11119166469637    1.22971200186843
H          -0.52885177171541    0.18680396904675    2.20534554603036
