    26
        -50.46954180  Gyration_radius:  2.39868287865 Dipole_moment: 4.985
 S           0.04330316109981   -1.10214962262511   -1.14760781865056
O           0.60440982390220   -1.22022206720159    0.20011544092932
O           0.84985974901876   -1.75732810120491   -2.13998779200893
O          -1.38026707146352   -1.74075569333354   -1.11464537084589
O          -0.17618433666256    0.32144039601706   -1.47934267213150
O          -1.87845919615197    1.06609949517650    1.80572473796642
H          -2.51754171928472    1.55578145289393    2.32500356593338
O           0.91776835950237    0.89846235953191    1.76601170240939
H           0.85518981143782    0.02066259333796    1.33321172922941
H          -0.00658631048969    1.15788267813931    1.90444151613657
O           3.10943128910407   -0.86063497465496   -1.11687634945484
H           3.11474790130161   -1.37576066548828   -0.30552026097098
H           2.36448856107296   -1.23942266613862   -1.63910419757994
H           2.60293601044514    0.65234531957032   -0.76559529975996
O          -1.68100341737621   -1.66660919291857    1.46248026296998
H          -1.64112934639499   -1.78622603147094   -0.15321245699194
H          -0.71446831751932   -1.73089828390862    1.40259791952928
H          -1.85492779016462   -0.74682739507758    1.73534951930623
O          -2.59887817419993    0.97579601843607   -0.72986702960789
H          -2.17449296464377    1.12809804149120    0.86181055090176
H          -1.70695871345057    0.80743241389256   -1.11014880069127
H          -3.12140902248850    0.20605817349440   -0.96721031527323
N           1.94690652413864    1.46106296469744   -0.58131088669628
H           1.05135663771781    1.16157066342768   -1.07565378208758
H           2.31019882969927    2.34669894074628   -0.91418343824636
H           1.68170972180771    1.46744320305779    0.44351953565312
