    26
        -50.46954178  Gyration_radius:  2.39860118085 Dipole_moment: 4.985
 S           0.59098208949087    1.46638403309645    0.17502043521350
O          -0.65254815392374    2.33663358915473    0.53779479875737
O           0.29390556235352    0.78859340017042   -1.08891067172315
O           1.76138548396523    2.29596151196972    0.09358691594576
O           0.70330419930959    0.47436312087360    1.26500583474246
O          -2.47942906752541   -1.30218831371446    0.28933085314015
H          -3.25831039542080   -1.80994635858475    0.52011065791453
O          -0.15658011006543   -1.82385636566671   -1.18780993413354
H          -0.97862780906673   -1.88411479521601   -0.67637626932744
H          -0.03433410577851   -0.86071624172167   -1.32661193764947
O          -2.33296182130848    1.12229520239651   -1.02360193910573
H          -1.50607110501543    0.96929285179152   -1.50809102324196
H          -2.55899557131763    0.25749254076830   -0.63397538722395
H          -1.40763200153201    1.98146805865958   -0.00847328378298
O           3.12518163831046    0.50302127453170   -1.27807367926013
H           2.77273796160282    1.25278496709064   -0.74440795383329
H           2.62933873042361   -0.81832474038806   -0.45645883834214
H           2.63431191581576    0.54931398086056   -2.10303097847327
O          -1.66671284468878    0.15412088816418    2.33251062779916
H          -2.19275231505301   -0.83381212288573    1.11455648911469
H          -0.73030118121126    0.26013930963227    2.04889871232392
H          -2.02442556001560    1.04495196165568    2.35165685142874
N           2.04787179598453   -1.43049667773477    0.18061738861467
H           1.56005757920075   -0.72481499548102    0.81312204346826
H           2.60304721021136   -2.10799661857661    0.69045901610951
H           1.25755788523389   -1.86054945081383   -0.37684870847733
