    26
        -50.46954182  Gyration_radius:  2.3986454988 Dipole_moment: 4.983
 S          -0.35155139533486   -1.46400575572474    0.51580990070130
O          -0.89184065266603   -0.27307967863827    1.20477392169279
O           0.78703573162946   -1.08205307345451   -0.32280841039577
O          -0.02497501636527   -2.50923634119503    1.44604700630115
O          -1.49118748453310   -1.93918921735849   -0.43844124416669
O          -0.93551360902697    1.81461402687392   -1.94015830067380
H          -1.31557671779617    2.51125671266270   -2.47695446344778
O           1.50596619403150    1.45514438658662   -0.61343697481617
H           1.36705347024057    0.48443965172797   -0.63056686645745
H           0.73012229825681    1.81092879911238   -1.07432315160800
O          -2.74176702479942    0.78765223942554   -0.31577837328834
H          -1.64529944292088    1.52188257771143   -1.31321589575335
H          -3.20424894450098    0.02396374335863   -0.66907077239328
H          -2.11938148452298    0.42302923874381    0.35374891459151
O          -0.55325540559406   -0.84043229701110   -2.59439699891806
H          -1.26080004708945   -1.58595615197535   -1.34222915063098
H          -0.70174136016241    0.12224839685220   -2.55068387746925
H           0.27058075809908   -0.98854572101203   -2.10317171167205
O           2.30669513141228   -1.44129356083038    2.06273360015605
H           1.82307297624997    0.11827374749851    2.11049731799872
H           1.46309993750804   -1.94295151410344    1.97557159922911
H           2.75835029314372   -1.59263478612346    1.22800798162540
N           1.22721820509324    0.97750729383973    1.95180903874655
H           0.25446892179337    0.57028974293308    1.79665486655138
H           1.47557894986509    1.40507642884679    1.01593917619991
H           1.26789571800355    1.63307110117106    2.72364285787984
