    26
        -50.46954175  Gyration_radius:  2.39881625179 Dipole_moment: 4.984
 S           0.55424066324656   -1.25470766257204   -0.80735712545763
O           0.44767967346794   -1.29635181744688    0.66639197873518
O           1.72237240344545   -1.95037755170555   -1.27231557920198
O          -0.73148682667539   -1.96625807901248   -1.33263479045605
O           0.50429997301452    0.13318859890254   -1.27262011843704
O          -2.49588579064945    1.06752946333717    0.74967693992687
H          -3.30764515504680    1.37808234987200    1.15265505372411
O           0.06610552112088    2.14538457290777    0.40042910996889
H          -0.84006054057478    1.94804226491104    0.68495595465164
H           0.21863039980896    1.52962307553923   -0.34736143469058
O          -2.08644939985800   -1.47864520855397    1.30166262428195
H          -1.11224196995342   -1.48559776976638    1.16227420160470
H          -2.37165257631678    0.13102895537457    1.04977624099870
H          -2.43695786553205   -2.08748982896977    0.64718020757061
O           3.31829025198567    0.09534253884526   -0.79951850223295
H           2.87141249109530   -0.76136075060947   -0.99340396007120
H           3.00302981545081    0.68740026475218   -1.48779721940235
H           2.66207420913033    0.55750705659818    0.62365933154016
O          -2.08285780972239    0.19171904663693   -1.83632792058670
H          -2.38603774066734    0.58024019223634   -0.99502333841300
H          -1.17784841676198    0.52250372153746   -1.95249546603338
H          -1.36823618069052   -1.24006561045692   -1.58113096073444
N           1.96359854759214    0.64183035975157    1.41315140117152
H           1.29434695004140    1.43436263514725    1.20246040306013
H           2.40462674825586    0.71110161749696    2.32302293100191
H           1.36665263482103   -0.23403244471110    1.30069003742190
