    26
        -50.45300976  Gyration_radius:  2.43487189962 Dipole_moment: 5.196
 S           1.25785532456883    1.65556593292930    0.25628902674161
O           1.12717886216215    1.35618343082996   -1.16185983658997
O          -0.15381323593515    1.57055980814007    0.87969833699527
O           2.03853552176216    0.50339876279268    0.90909876166664
O           1.85636218279461    2.89749663604903    0.57210165248966
O          -0.06198556467555   -2.14726385925727   -0.88731282258904
H          -0.27647162105255   -2.88673247429356   -1.45712798327835
O          -1.06802171985399    1.46933200967980   -2.68648310145345
H          -0.17168034480778    1.47219649650526   -2.29763228774716
H          -1.29874074611875    2.38697075641739   -2.83809699974786
O          -1.63278252450844    0.03959270523172   -0.50565891868962
H          -0.75228102887388    0.94329330303746    0.33179081501102
H          -1.63238063462956    0.51713319764039   -1.36353316197659
H          -1.13859355011756   -0.78835945739652   -0.67123966462439
O           2.21036474026787   -1.02037610976508   -1.54555961793311
H           0.80384383670486   -1.77991994490871   -1.21374489673656
H           1.88169359239699   -0.09676339485339   -1.55270954090299
H           2.83697398487704   -1.05904257925241   -0.81817117690737
O           0.55832886116805   -1.36883754504996    1.66927304843508
H          -0.28002600177750   -0.99694674254927    2.06074460643247
H           0.29433735738134   -1.83356597509359    0.85795146640583
H           1.42680818292590   -0.26666015130863    1.25483453274036
N          -1.73931463307119   -0.29754376592710    2.52031550683715
H          -2.28597212519552   -0.62764159252912    3.30503318420384
H          -2.32240073288008   -0.30814913839567    1.69137366928155
H          -1.47781797351694    0.66607968133095    2.69062538193419
