    26
        -50.46160236  Gyration_radius:  2.61720245113 Dipole_moment: 3.628
 S          -0.03905888910475    0.60287335481106   -0.34930015765624
O          -1.04378200337073   -0.46861304881560   -0.52014890166196
O           0.64488000551337    0.80210888017866   -1.72389900407419
O          -0.71215230039934    1.83204164914777    0.02255927102581
O           0.97575659779699    0.20765647951738    0.61852888032277
O           1.73503855424941   -2.91531171503779   -2.10429601465225
H           2.10405260023592   -3.35030044229507   -2.87442916968491
O          -0.38044174942445    2.92307332628651    2.39977667196151
H          -0.50248240329797    2.61307459211188    1.47327618797556
H           0.37061883837667    3.51764578243484    2.37861888323200
O          -0.22264927760806    0.32278579543606    2.96362069508195
H          -0.19456810389798    1.29890327040771    3.06221095058382
H          -1.53980519499937    0.18012062470350    2.28713273951885
H           0.36465332644326    0.15065537696578    2.19158425845245
O           2.71252306747652   -0.57654444354358   -1.25781617431110
H           1.53140657298323    0.29946461010661   -1.66147421342179
H           2.44653535354425   -0.49259519353312   -0.32850184367971
H           2.47103216716058   -1.49288973845895   -1.52925748644559
O          -0.48025625687798   -1.60774617002621   -2.86031951429488
H          -0.79517982878464   -1.28817501229012   -1.99076504968576
H          -0.18382521480350   -0.81573230356972   -3.31703112749808
H           0.86166435502156   -2.55415783613419   -2.38071899101733
N          -2.37819193594671    0.19047121194432    1.57099862973019
H          -1.94190106564267   -0.18648439022217    0.65998768450065
H          -2.62600641854069    1.16230415028234    1.39256975600278
H          -3.17786077610245   -0.35462879037938    1.87709302969215
