    26
        -50.46160209  Gyration_radius:  2.61752301315 Dipole_moment: 3.638
 S           0.25711164767502    0.59942958528203    0.24819029902267
O           0.33967868795487    1.05812517503066    1.62118516099693
O          -1.11267578418682    0.33058119637401   -0.16872525959735
O           0.84809232809507    1.68836326570556   -0.68015754307618
O           1.09877715269701   -0.60577498405264    0.08735144929766
O           0.63791879108554   -0.46587305578126   -3.91532269036351
H           1.00959834412481   -0.27897978901072   -4.77866974672907
O          -1.73908631746199    0.96235771278972    3.23959334581935
H          -0.94084607900467    1.09065490438826    2.67758998097714
H          -2.24053701297515    1.77584402518983    3.16959667668393
O          -2.12608824207161   -1.19736653661068    1.72559937230544
H          -2.27555769584402   -0.48565697496546    2.38450188231446
H          -1.90936822081196   -0.70696054442181    0.89906310701367
H          -0.75060986016183   -1.60913722692923    2.11668254418581
O           2.57297634818916   -0.15938236967972   -2.08502560355716
H           2.68470444812949    0.78794894808802   -1.96742113079071
H           2.09897263018996   -0.45382026122300   -1.28125921570106
H           1.39273481107531   -0.47241040578584   -3.28298913022700
O          -0.76832389912429    1.38805245134855   -2.60103624661090
H          -1.30720279522576    0.90846811847928   -1.95219059895588
H           0.25431006735064    1.68877030843125   -1.51079860293552
H          -0.35456646379197    0.70067169282764   -3.17372350038843
N           0.33551075033002   -1.66377776969404    2.29768020251892
H           0.76751701990821   -1.33861413645302    1.36495589664385
H           0.65329557885833   -2.58677045371903    2.57597613881586
H           0.57366376500090   -0.95474288560344    2.98935323233408
