    26
        -50.46160214  Gyration_radius:  2.61705206283 Dipole_moment: 3.619
 S          -0.17646247373247    0.24456962936010   -0.62942046171786
O          -1.19856644209821    1.21118141772956   -0.98036080505002
O           0.53643740787858   -0.22234655557082   -1.92200954264099
O           0.82363360342481    0.79382249767022    0.27652309581658
O          -0.81888577392299   -0.94846932414553   -0.03724495720385
O           2.64799764201871   -2.98232531717974   -0.16141610236614
H           3.18805852958878   -3.66445147115381   -0.56331078610133
O          -1.38309993761837    3.53197291943390    0.25714132089134
H          -1.33699419890101    2.71722182739294   -0.29369885937645
H          -0.82658882288931    4.17577300921583   -0.18319308939436
O          -0.55193495806072    1.92935135357228    2.21748128871288
H          -0.80804128250606    2.73718556149958    1.72226423696162
H          -1.71305610926934    1.05916275954080    1.89116555619572
H           0.12315725287101    1.50654597096503    1.63776947615458
O           2.85938153901620   -0.43694683252938   -0.94694414157360
H           2.50505590981574    0.10158003259546   -0.22183662837747
H           2.90613590358363   -1.36010166711644   -0.60428669615878
H           1.51923322193282   -0.32824719868804   -1.66627413638496
O           0.22944210173601   -3.03492293549953   -1.31712990754493
H          -0.23256875016146   -2.36740473993295   -0.77085694008887
H           0.33097649565970   -2.61702584607047   -2.17667889444332
H           1.73562914920185   -3.10866675569903   -0.50968911056399
N          -2.45676602075084    0.41361474424718    1.39475987245948
H          -2.95225587817148    0.97824441407775    0.70669725917621
H          -3.09340075004883   -0.04086654226581    2.04161425212882
H          -1.85651736859177   -0.28845097144187    0.83893471049450
