    26
        -50.46160222  Gyration_radius:  2.61722798881 Dipole_moment: 3.622
 S           0.37997756690519    0.57401983439929    0.11384760391158
O          -0.53837550290943    0.33370820037860   -0.99136776716952
O           0.41788016169595   -0.59055892427449    1.02437490904733
O           1.80722436937224    0.74226358374837   -0.46209485496986
O           0.03733525464615    1.76104636846425    0.87261290826364
O           2.04093532106720   -2.88945679421067   -1.85067935306784
H           2.80711170216635   -3.34008921848334   -2.20897346710689
O          -2.24041833114889    3.03261782075955    0.49005327302963
H          -2.13159999999655    3.68477722239339   -0.20340057748831
H          -1.34509170734863    2.65254603093527    0.64273325280936
O          -2.94801351957376    0.49881644027027    0.06438332186564
H          -2.37253465185593    0.19667666669923    1.40201905272924
H          -2.98513374329770    1.47814147749226    0.11934346252902
H          -2.14973717498678    0.32778500644530   -0.48713647338462
O           1.40281363194888   -0.42638468814507   -2.66746040774998
H           1.60190356295831   -1.37564671599650   -2.49125016043324
H           0.46402154874242   -0.30433372758456   -2.45507441715915
H           1.77604932990867    0.31989029264367   -1.39113814903207
O           2.72223849098377   -1.82310349232292    0.51296893647448
H           3.24268051625753   -1.03941799465448    0.31616629203270
H           1.85287229900844   -1.47690723996872    0.79896211134398
H           2.27944718631036   -2.62151303780046   -0.93363895795966
N          -1.71578676940747    0.08536838726769    2.28095669969346
H          -1.49575800775420    1.01755389818952    2.62783296422048
H          -0.80179674303146   -0.31159571270501    1.86953583471347
H          -2.10824479063596   -0.50620367391277    3.00642397286643
