    26
        -50.46160210  Gyration_radius:  2.61723131629 Dipole_moment: 3.621
 S           0.67111796567008    0.17526266790991    0.07560949987550
O          -0.21428349056248    0.54717915231337   -1.02003149812059
O          -0.04600207772666   -0.65316358243554    1.06869485926096
O           1.81741028406068   -0.69561575414233   -0.49412814999096
O           1.24463612093340    1.32809569065341    0.74212491586590
O          -0.50362218774366   -3.61903366932468   -1.60815492148633
H          -0.25394807746154   -4.48890651615874   -1.92349767079944
O           0.39720309698441    3.77416488696068    0.24088256367903
H           0.88792027507850    4.13926783498754   -0.49670527833219
H           0.81095422766120    2.90136117184687    0.43156024982526
O          -1.84435863261892    2.35458502064717   -0.00811965728663
H          -1.56803415884650    1.82705678068953    1.35453560954457
H          -1.21215479642505    3.10528003337689   -0.02479578042808
H          -1.39038786261032    1.65761264922660   -0.53616965442481
O           0.64364509086793   -1.42410578951739   -2.61182477122435
H           0.16104824524394   -2.24709017107718   -2.36370412938630
H           0.03943321176400   -0.68955352823095   -2.42029387661500
H           1.47301027185785   -1.04453934024287   -1.38971074137589
O           0.81405539790358   -3.14276249519801    0.67761660316128
H           1.71698094467814   -2.92614172784467    0.42951850962805
H           0.41393838610147   -2.28534235156793    0.92694758226353
H          -0.10919507909807   -3.52458503104539   -0.71084414885327
N          -1.12168089280589    1.35753739214257    2.24708338727178
H          -0.72799729702927    0.42487522614417    1.87656193970432
H          -1.78036114772684    1.22980164098053    3.00871913553577
H          -0.31932780811324    1.91875982895433    2.52812543268041
