    26
        -50.46160226  Gyration_radius:  2.61740365705 Dipole_moment: 3.632
 S          -0.08900733382010   -0.62864952452904    0.29362204984223
O          -0.48090336411379   -0.35401453369206   -1.10564349774554
O           0.81734157020261   -1.75994531834142    0.32116523599433
O           0.48394599546127    0.56042216655260    0.91053223307100
O          -1.38216835983744   -1.00353074296277    1.05785068505088
O          -3.28751568655895    2.26334273684441    0.12301045380382
H          -4.21286770438314    2.47135666962694    0.26056374507345
O           3.34357981385422   -1.49023028093214    1.02582239805165
H           2.40067094909323   -1.68101377685508    0.81603023731612
H           3.42625850383766   -1.59755464589192    1.97435226992661
O           2.86390436748230    0.83256445922893   -0.19042760901167
H           2.40584097893988    0.03085933845948   -1.35712995065854
H           1.99931615403892    0.94060527417829    0.26938503764400
H           3.31331435528746    0.12828190950399    0.32462136764617
O          -3.13421592757303   -0.13143795883683   -1.07287748066598
H          -2.16961831577125   -0.18450809181428   -1.22825551220092
H          -3.30644824588238   -0.78582095611831   -0.39033276958023
H          -3.26472324081368    1.44791928116431   -0.42849421801389
O          -1.80388513010798    1.25845649377607    2.10571460825539
H          -1.65616858645820   -0.15736015372954    1.55944341969272
H          -0.87993590454029    1.43691348170818    1.86895858051234
H          -2.35323506613750    1.74463686143228    1.44727974586007
N           1.89115281801741   -0.67274789571401   -2.03218370853785
H           0.84751105650481   -0.53541369782317   -1.79829814035330
H           2.13133415114423   -1.61896373680759   -1.74117017613939
H           2.09652216210930   -0.51416736842149   -3.01353899481902
