    26
        -50.46160208  Gyration_radius:  2.61712735765 Dipole_moment: 3.618
 S           0.66297064888682    0.20889803512681    0.06376502796531
O           0.06787715560158   -0.81461566825491    0.94976160151127
O           1.85561640721866   -0.33368845411124   -0.55702033130654
O          -0.31249732815052    0.67406629471195   -0.91329505401324
O           1.06527183124984    1.40384577857335    0.96222249120592
O          -2.48510401447859    1.88082146843452    2.49420284268035
H          -2.74620740530861    2.44238094797084    3.22562243273018
O           1.97721968213631   -0.77814429462198   -3.15299973402116
H           2.27885589201287    0.01349844999947   -3.60055290178527
H           2.03126368914384   -0.57832187741577   -2.19043356320135
O          -0.96739412307135    2.83942613437506    0.51457627927553
H          -1.10367783408456    2.24897505534583   -0.24313156920033
H          -1.62560408558145    2.56654784210208    1.19579954505474
H           0.31633490431521    2.08912744752504    0.85294320904043
O          -0.37635155713437    0.41705554713450    3.26854174694268
H          -0.27046598308512   -0.15406208945306    2.48112866312610
H           0.38410780197065    1.00439351431491    3.24638013599542
H          -1.79883992907147    1.26809745600321    2.84520223962271
O          -0.57906170731530   -1.31397241750182   -2.62365793574330
H          -0.08457256192648   -2.25939697900149   -1.58772429268134
H          -0.67168061364416   -0.50877388273210   -2.06358661670327
H           0.25601159342913   -1.15813024051800   -3.11545249207554
N           0.41095866934060   -2.73122895883698   -0.72276195101820
H           0.22526637004828   -2.04309701355361    0.08602436103903
H           1.41564924954599   -2.71559279423609   -0.89035825612291
H           0.07405326796556   -3.66810930136187   -0.52519585832455
