    26
        -50.46160209  Gyration_radius:  2.61756916205 Dipole_moment: 3.638
 S          -0.15460157179277    0.24816962450544   -0.63330064581529
O           0.71306595272261    0.85663536433593    0.36638360808128
O           0.69685009860337   -0.09162131293744   -1.88089323037110
O          -0.71379132909817   -1.02658533945594   -0.13418494431825
O          -1.24142038911050    1.12171441856358   -1.03082361085412
O           2.96207793155434   -2.67873159234998   -0.05793539242413
H           3.59797520905951   -3.28524845329895   -0.44030980175541
O          -1.77297402476244    3.35146170945375    0.27129365325485
H          -1.59444929729942    2.57153834077780   -0.30258871888021
H          -1.27056352442278    4.07416604882258   -0.10743775391734
O           2.95382548936088   -0.09505609095223   -0.74112308045266
H           1.66443730217273   -0.10098564150089   -1.55509624302623
H           2.49149612365511    0.37161950844444   -0.02709010061104
H           3.07624029253500   -1.02144827759369   -0.42738314657170
O           0.64885762215054   -2.94044942016552   -1.38805707416646
H           0.07786382300667   -2.34712561332228   -0.85953567142076
H           0.76602490333000   -2.48230887626648   -2.22478956586121
H           2.09449895659203   -2.88575474506761   -0.47517309172346
O          -0.91193116743023    1.76498970529120    2.23287433302249
H          -0.15615768786968    1.43786168727697    1.69206427618852
H          -1.21499814272712    2.56274571582589    1.74834202654395
H          -1.95033706653034    0.79714907444675    1.78694264028474
N          -2.58485329690028    0.10320370717618    1.21135886741465
H          -3.21791076742089   -0.44023581888631    1.78945997968947
H          -1.87610291426207   -0.51104266940979    0.67961905203857
H          -3.08312251510398    0.64533891625272    0.50738360563428
