    26
        -50.45300975  Gyration_radius:  2.43484959315 Dipole_moment: 5.196
 S           0.78874490343399    1.46875593753835    1.26858725476040
O           0.24273485750973    2.09645372399465    0.07457278090985
O          -0.38591732307673    0.88828863651508    2.07252703487178
O           1.59675876122356    0.23224019192057    0.81362328966392
O           1.58714186519688    2.29725221059990    2.09107796013219
O          -1.96307421170981   -0.66626207315297   -1.05084739489056
H          -2.60953070387927   -0.84560073704103   -1.73457234719710
O           1.05471249389478    1.83058976762192   -2.46036559189156
H           0.70311810175452    2.10885345256554   -1.59225439124839
H           1.88668861965621    2.29218832973572   -2.57443851387056
O          -2.35967887753782    1.65458700051988    0.09924219529557
H          -1.43547459629828    1.97464532654896    0.03191869757715
H          -2.18470764384706    0.23042105124458   -0.67934648529083
H          -2.52136582488822    1.54846593873309    1.04044282881596
O           0.73005926345649   -0.60567036400416   -1.42171678014056
H          -0.24414766924196   -0.67330848601449   -1.36172589733111
H           0.90057987436235    0.17935302424996   -1.98626715727352
H           1.24272451757661   -0.11915411928408   -0.08249914581680
O          -0.97687148678722   -1.44735368709691    1.38722088680309
H          -1.43477461030772   -1.35700671184627    0.53514928490656
H          -0.14435533502239   -1.96382083917777    1.20115764503762
H          -0.61891442045860   -0.09425876608059    1.81339467368430
N           1.29003363980521   -2.69880390060472    0.71966581458093
H           1.49949714670294   -3.67155749661302    0.90259294374970
H           1.99329018736031   -2.12594881184665    1.17050504126958
H           1.36272847112354   -2.53334859902436   -0.27764462710078
