    26
        -50.46160234  Gyration_radius:  2.61745437148 Dipole_moment: 3.630
 S           0.18383689203543    0.41447291156439    0.53090499040283
O          -0.12354080546265    0.28314392149717    1.94172736975835
O          -1.07203570854298    0.61645917098765   -0.22336358069611
O           1.04370782715597    1.68487404965735    0.32173698019173
O           0.91820748905871   -0.73121998454385    0.01076667882346
O           0.99748526632359    1.49183723369689   -3.56799770585158
H           1.30138458400650    2.14676457382991   -4.19819941143461
O           0.25517018003082   -1.98454774565692    3.23251054638056
H           1.14773982613729   -2.01177500608930    3.57971163419702
H           0.14930428834243   -1.08934086620692    2.83658543276057
O          -0.62235909532123    2.70667936142877   -1.81072264329410
H          -0.05189250278551    3.19749625014133   -1.21286065288899
H           0.30965851880131    1.93279428580860   -3.01837087039368
H          -0.92053721396274    1.93425504514696   -1.28928784432503
O          -0.44231939261322   -2.84382411971286    0.80765916254311
H          -1.65758369658613   -1.99718187188448    0.94782114112866
H           0.14756362926851   -2.19166665349550    0.36346408551224
H          -0.13209331971071   -2.83943798590123    1.73878315742437
O           2.53332273362883    0.76845238746702   -1.50421907151286
H           1.72419075485380    1.43662273260596   -0.39794985656427
H           2.20406627687079   -0.09609842594169   -1.21179284429852
H           2.05865669523753    0.97165999858728   -2.34395946725982
N          -2.36880043887279   -1.16675550250128    1.09048176714844
H          -2.29035438533577   -0.84906747925684    2.05516189680236
H          -3.32445962257341   -1.40693549730882    0.84689262483184
H          -1.96831876999124   -0.37766079390762    0.47451647062135
