    26
        -50.46160222  Gyration_radius:  2.6173668401 Dipole_moment: 3.632
 S           0.14731064086066    0.68043632917271   -0.04651025147925
O           1.08647510206534   -0.43314788137556   -0.06711202827433
O           0.43302425973038    1.62814324781070    1.01297930596255
O           0.22461802743320    1.41306591825111   -1.40821506576160
O          -1.24045057978719    0.19127581676238    0.10040335383055
O          -1.04735754983021   -1.61196418602951   -3.50073516808779
H          -1.30122054854667   -1.62962814706725   -4.42470379568398
O           2.19084493867652    1.09677263041710    2.90453473421678
H           3.06109000869181    1.38543794472122    2.62613129338850
H           1.57199499427256    1.39249845060865    2.19809223371091
O          -2.33458326178020    0.42021649480964   -2.31669720688715
H          -1.87699936543986    1.22163484974430   -2.58523294285190
H          -1.62691272872097   -0.94522168738736   -3.06576897448407
H          -2.06206134218054    0.27990533263815   -1.38747869226614
O           1.24903950904732   -0.47903828117314   -2.73620015774408
H           1.45855004153757   -0.85396252103002   -1.86621263645585
H           0.47996455181204   -0.99300062777352   -3.07685361064507
H           0.65609099209864    0.74730036077905   -2.05092934697501
O           1.16970973277459   -1.31643264241624    2.41535693456948
H          -0.16479772530203   -0.70789081054748    2.66617838065323
H           1.21718033099516   -1.18276914364937    1.44041963395346
H           1.74267136603594   -0.60509528375707    2.77428503550311
N          -1.07285223828211   -0.08295575792388    2.64689545915416
H          -1.30257368277155    0.00362201209246    1.59707465275425
H          -0.81735499505936    0.85057224657166    2.96483138342547
H          -1.84140050831964   -0.46977464426712    3.18546746646117
