    26
        -50.45300967  Gyration_radius:  2.43476117374 Dipole_moment: 5.199
 S           1.90643394415709    0.80633033226574    0.32169640173867
O           1.44745620525790    1.15489462015667   -1.01463998586668
O           0.72528702704780    1.03584669592811    1.29172976955731
O           2.14450059406694   -0.71188859637013    0.35512606048609
O           3.05387142913019    1.49529778611002    0.77886578682407
O          -1.18227772420606   -1.43279466908710   -1.39594928351478
H          -1.79708061581891   -1.74838016577831   -2.05923716283036
O          -0.63667870905446    2.68123318843342   -1.70890138453395
H           0.20355206626909    2.18971945464564   -1.62435624635935
H          -0.43264035158106    3.59804969003826   -1.51905850171403
O          -1.47920849651797    0.85470720609473    0.04393897973700
H          -1.38040866336178    1.58724578698489   -0.60238683540238
H          -1.45729802684773    0.03517647889745   -0.49005674007984
H          -0.16878798611971    0.95064012560829    0.79643134712198
O           1.23069923922054   -1.10394810608256   -2.36304379802016
H          -0.30264641719967   -1.33002217492991   -1.85083142439073
H           1.37296143904821   -0.20082834353636   -2.00906765435870
H           1.86481068846663   -1.65833859855989   -1.90065702874400
O           0.09034969651206   -2.00875622223960    0.96504298442682
H           1.30153603937261   -1.25698782729724    0.63686988491282
H          -0.41140893459155   -1.52675875289775    1.67945898730007
H          -0.47369480339228   -1.98312498178942    0.17441957236796
N          -1.29242065486338   -0.55841301045177    2.73548361916016
H          -1.80909209725648   -0.92949579587560    3.52217865964319
H          -1.92706233433808   -0.02346410685163    2.15382425822618
H          -0.59075255339993    0.08405998658669    3.08311974431031
