    26
        -50.46160216  Gyration_radius:  2.61720371201 Dipole_moment: 3.621
 S           0.38433225604831   -0.31840814583641    0.48738364881009
O           1.07474223040179    0.46453039463114    1.63077245595506
O          -1.07160176392361   -0.11014453190001    0.64116204609525
O           0.84922926267782    0.21720920788216   -0.78527154829709
O           0.68232886880411   -1.72925308094850    0.63829756661195
O          -0.57539200601440    3.87974381349052    0.74382641237287
H          -0.56202057209714    4.69459144726207    1.24815452142893
O           1.58059375015876   -3.17227919606600   -1.37753073995627
H           1.31255355814220   -2.68700380073895   -0.56387499712817
H           2.53688195803645   -3.12087578807984   -1.40827209206131
O          -0.04861962940487   -1.46035570169470   -2.60955805177039
H           0.61675430504426   -2.16584137986644   -2.45778289418815
H          -1.10602929174455   -1.90789578558300   -1.66445479786035
H           0.30209065284311   -0.69659991771969   -2.09541320962250
O           1.68054847043940    2.52086856383021    0.29014157762847
H           1.50773019947800    1.95657392228961   -0.47998871848008
H           0.89962494954187    3.11666457869389    0.37330619546852
H           1.39779060874968    1.33524557524713    1.20653361792701
O          -1.32860242353762    1.89197233843414    2.37789185420199
H          -0.97605949109389    3.19680358009427    1.32922969856706
H          -1.38052622287512    1.15618256906096    1.73494280479007
H          -0.56452580147803    1.68476798122832    2.92285115681021
N          -1.70332026434112   -2.15785743650185   -0.77167553807599
H          -1.59661631206040   -1.29030467209014   -0.14067606915511
H          -1.23899404525416   -2.92526343891912   -0.28873919767398
H          -2.67289324653287   -2.37307110618598   -0.98125571238921
