    26
        -50.46160223  Gyration_radius:  2.61686366659 Dipole_moment: 3.630
 S          -0.42976934764766    0.40323292816891   -0.37626300518373
O          -0.02204301264905    0.76551112916691    0.99825707909376
O          -1.96587047561393    0.21133231366605   -0.35457993273930
O          -0.10560793606319    1.49556217802588   -1.27301086409185
O           0.18663158642871   -0.85300792139460   -0.78197082138728
O          -1.93530732814695   -2.45259730467295    2.48319129802910
H          -2.67931586674381   -2.81650317832866    2.96537639158687
O           1.74029413478699    1.24616513519666   -3.13872989858704
H           1.34198627466672    0.91015707551291   -3.94273590898992
H           0.99516935585506    1.39250089462174   -2.51197481481062
O          -1.97384543602131   -2.31128535446746   -0.18511149049819
H          -1.95300175090745   -2.49899393771070    0.78239651725018
H          -2.11304228920097   -0.79811265904467   -0.30997821357558
H          -1.04743726574225   -2.24078196337593   -0.46486166717929
O           2.72717428595719   -0.28092043773631   -1.18952793820102
H           2.59096501463108    0.90823627003878   -0.30586734370860
H           1.85096870903813   -0.69802036762840   -1.01932878238593
H           2.61158363911981    0.15140042184985   -2.06291615836362
O          -2.12922505533309    0.22105518324058    2.53294102426614
H          -1.28872154021429    0.46187655216533    2.09369062514938
H          -2.81086219523512    0.45410668757765    1.89670306800862
H          -1.96052388643341   -1.47868319168156    2.62625255954113
N           2.22176313474114    1.77500870796066    0.26699059443227
H           1.31289794379143    1.41425846589481    0.72084461460762
H           1.94642413234271    2.49566076158074   -0.39829040212656
H           2.88871517457378    2.12284161134874    0.94850346986648
