    26
        -50.45300973  Gyration_radius:  2.4348595726 Dipole_moment: 5.196
 S           2.08900442894657    0.10645015377166    0.11618389001239
O           1.83858559865192   -1.07231480133796   -0.83816906350371
O           1.19545219673315   -0.18968083466553    1.34204774980882
O           3.44889456245661    0.14742608062425    0.50259659367789
O           1.57305706659444    1.30979230687539   -0.51911536489066
O          -1.76536493343689    0.03109428712764   -1.51132856626051
H          -2.53862514703414    0.32240052227758   -1.99579081778138
O          -0.00139763788973    3.19880902164833    0.53365320588425
H           0.64386089720165    2.65734624221006    0.03853476025733
H           0.50669841575137    3.72145754478712    1.15568926238435
O          -1.11115011962822    0.81905373764804    1.00765121254976
H           0.25793086901802    0.20373592349791    1.20735154483275
H          -0.88201751250528    1.77103250183588    0.93473325337991
H          -1.42750245863126    0.56118526401982    0.11844636827126
O           0.45930008657042    0.55863608183820   -2.79142880868109
H           0.92939778020501    0.97263626299819   -2.03727337450570
H           0.94677946800039   -0.24764969532024   -2.97990771141547
H          -0.97488826699487    0.27796322196260   -2.06396270354329
O          -0.40707336924152   -2.13245280758465   -0.51097887169781
H          -1.04373580752848   -1.51137595827563   -0.90186280313078
H           0.91774215808009   -1.53761793040426   -0.68831268341812
H          -0.62092030749358   -2.17297174669126    0.46218189496254
N          -0.98701507688853   -2.02330881265061    2.09714083361763
H          -1.47322731856296   -2.73937647037044    2.62100503706086
H          -1.49832746535909   -1.15273806610289    2.18619126344952
H          -0.07545810701309   -1.87953201972031    2.51472390867835
