    26
        -50.46160200  Gyration_radius:  2.61745978047 Dipole_moment: 3.641
 S           0.43700929413942    0.25949642603407   -0.48031000002990
O          -0.06131022080139    0.78714762980811   -1.84781091562832
O           0.09969354363853   -1.17930305991911   -0.42585701610955
O           1.87715190697880    0.41385059133559   -0.41416484794622
O          -0.25139975320686    0.99008664510433    0.57555292513217
O          -3.74230927365677   -0.37223100929370   -1.34301539167038
H          -4.45368622700716   -0.38691496935752   -1.98506003054795
O           3.05676037011827    1.52649136743159    1.66420440993868
H           2.68442520125422    1.16184281342962    0.82875336723525
H           3.12921196494043    2.47194137495109    1.52624276767061
O          -1.61075127555737   -1.58525094955412   -2.42601226219299
H          -1.22963071508615   -0.95734950687222   -3.04587546063672
H          -1.00058579890034   -1.57851395470461   -1.66109410053870
H          -3.02180944678536   -0.93206776246686   -1.71337992081707
O           0.97759428695478    0.31007123227268    2.80658802310032
H           0.35817091423254    0.62118602251131    2.10652232297583
H           1.46144286281450   -0.93442307294485    2.14932752637136
H           1.76972328496441    0.87592943087095    2.68298268128816
O          -2.22636836260710    1.80650302864723   -1.03173684832432
H          -0.94609838319068    1.25752492343558   -1.65160209038299
H          -2.88695873512951    1.07737944403564   -1.09243492529717
H          -1.82308979428751    1.73107986314896   -0.15245056202711
N           1.79449780995904   -1.70033013795999    1.42980214214584
H           2.67966821008862   -1.39164558557325    1.03109251755081
H           1.06505291033540   -1.64271680946216    0.63787052028696
H           1.86359541580517   -2.62978396489689    1.83186517846183
