    26
        -50.46160232  Gyration_radius:  2.61721815675 Dipole_moment: 3.625
 S           0.55794057163417   -0.41842487465745   -0.00935211969168
O          -0.45424616047652   -0.43564399640641   -1.08722150947950
O           0.21247846620526    0.56781810230660    1.00583774019875
O           0.54315125548860   -1.82175727934201    0.64454740000997
O           1.86641951781208   -0.18434208335490   -0.58837742464353
O          -3.26137034628670   -1.77158780790781    1.47085321556203
H          -3.81013520224943   -2.49088293749097    1.78703154584058
O           3.21014620392774    2.03326447148235   -0.10899700744512
H           3.74044743978445    1.92287274237856    0.68138310705187
H           2.80053261409401    1.15467166236592   -0.28114168328683
O          -0.91235672938424   -1.23698898265005    2.62781358047869
H          -0.69903446598200   -0.31919219190768    2.39640941563166
H          -1.83539543360202   -1.38959799630333    2.31733448378666
H          -0.00980803653160   -1.71839337657087    1.49652669802264
O           0.69204194078924    2.90664719934425   -0.11147798325615
H           0.38756911437188    2.14898921168253    0.43973621999161
H           1.66861677117498    2.88459480760308   -0.01529124306179
H           0.56081517179826    2.28142783581841   -1.45480298982944
O          -1.90057048361626   -2.63311630151312   -0.67271819668171
H          -2.87526627154806   -2.07131430331174    0.61600095334123
H          -1.45842325673845   -1.80183148472395   -0.93895728853389
H          -1.19135660919138   -3.18857276978340   -0.33769671503439
N           0.54270805269519    1.58784830891675   -2.31189233267659
H           0.02932183806908    0.72057498653479   -1.92900731265791
H           1.50068638841587    1.29717101536190   -2.50032832688405
H           0.09508765935149    1.97576604212604   -3.13621222677002
