    26
        -50.46160193  Gyration_radius:  2.61748287351 Dipole_moment: 3.620
 S           0.55210997526617    0.41955555044220    0.07940001423954
O           2.00519432637919   -0.11030110728016    0.01036969479280
O          -0.12048028313078    0.08725936835885   -1.16946872875979
O          -0.09962246580041   -0.25913380860838    1.22028675119099
O           0.58491591763690    1.84725109924068    0.33002596772224
O           0.98304870133748   -3.86533729422184   -0.18698546876964
H           1.54607816230499   -4.63836112824515   -0.12453040424377
O          -0.80844670900226    3.53898986239680   -1.13569548849848
H          -0.21103694887259    2.97855316798443   -0.58953494365240
H          -0.28907431630004    3.81236614261921   -1.89290981271847
O          -2.40307828952303    1.40375816815291   -1.09800849492058
H          -2.03688257412297    2.28700664568821   -1.31969215076280
H          -1.65184992003740    0.79078311344503   -1.27283225545147
H          -2.31110770951893    1.46253354841834    0.38545121953015
O           1.63039078954524   -1.83542831045911   -1.79974946087572
H           1.99959879989990   -0.82120361211509   -0.72244951112373
H           1.36879342982066   -2.65524659286675   -1.31880439893248
H           0.80865173208344   -1.34764944015936   -1.96723110276599
O           1.52661886178424   -2.25855105430367    1.88927437259939
H           1.11014523184559   -3.36033243301667    0.64872978720619
H           2.35670023830363   -1.82022137909400    1.68293778504304
H           0.84347721846766   -1.57146709529202    1.75238718611919
N          -1.96807225813829    1.48790790623111    1.43314676630584
H          -1.24027712406933    0.69423908363974    1.48419857783334
H          -2.71861262103194    1.37521705854909    2.10714156171366
H          -1.45718215514597    2.35781254050902    1.57454254721996
