    26
        -50.46160230  Gyration_radius:  2.61757508264 Dipole_moment: 3.631
 S          -0.47381529582959   -0.33638957287849   -0.38731367961289
O          -0.60646032884329   -0.10100052901730   -1.91181793073208
O           0.88024994679411   -0.88270874296140   -0.15298986703232
O          -0.63851844843850    0.94117106848922    0.29337531390013
O          -1.46057564661183   -1.31586946638503    0.02388732811878
O           2.54251977457560    2.17538453974396   -2.18076414014722
H           2.97662043728419    2.49721425201198   -2.97224417698864
O          -3.05306675563175   -0.89407138242809    2.08245920064932
H          -3.84712947731133   -0.44554372393643    1.78893078092675
H          -2.54120687783937   -1.09451056827582    1.26567848203797
O           2.21657993237087   -0.47501827343654   -2.42000915712587
H           2.55245942232576    1.19242045553227   -2.23792794663080
H           1.85038571865870   -0.68299494466269   -1.53677753840052
H           1.48012583947730   -0.60297579624539   -3.02416590483868
O          -0.10723686886688    2.37753138343857   -1.89920544141240
H           0.87226699360990    2.43899966052342   -1.99160500335553
H          -0.44614222974017    0.89830716726619   -2.04706507503205
H          -0.28415253308513    2.31459162647570   -0.94728028267699
O          -0.82150777163088    0.34249208221961    2.85399385146377
H          -1.75072009293825    0.02712776127405    2.83550626628702
H          -0.11928841111789   -0.94281111332094    2.59405066683603
H          -0.70161102943283    0.76289879387270    1.97108552506218
N           0.29172806487318   -1.86241513563664    2.14527734784151
H           0.67884929289782   -1.53305325138829    1.19450276603721
H          -0.48702069355995   -2.48621930061449    1.94006517549481
H           0.99666702802501   -2.31255698965832    2.72035343933810
