    26
        -50.46160222  Gyration_radius:  2.61721059035 Dipole_moment: 3.624
 S           0.09569879453755    0.54817380512207   -0.42265461250695
O           0.19052882112516    0.58043133192294   -1.86904254831863
O           1.12672244327930   -0.28205667586405    0.18579249099711
O           0.24201051532091    1.99022563440234    0.12139218314004
O          -1.25122272733684    0.07691383257590   -0.03451134047898
O          -0.56811902956373    1.03968255553744    3.81183215055371
H          -0.72757027247138    1.62407634924142    4.55450917292104
O           1.80024030572673   -1.04335413137216   -3.18262938193407
H           2.66622274003656   -0.64116549363801   -3.26312160548231
H           1.22731868446947   -0.36262373239379   -2.76098773045919
O           1.54027071226913    1.41294126899331    2.21281816281885
H           0.78515039073983    1.90154776661538    0.98146687127278
H           0.85315358385066    1.23944443125665    2.89807883524293
H           1.69800127061591    0.56444680449223    1.76938347921440
O          -2.12608437616881    1.82344704730939    1.77539467043204
H          -1.93240854232922    1.11281214249016    1.13125454343222
H          -1.24022458487464    1.26752268221342    3.12916194710573
H          -1.71246054534377    2.60726651035031    1.40352166469993
O           1.04128464037265   -2.56458173413705   -1.13028473371930
H           1.51154274936641   -2.25455028585966   -1.93410742797019
H           1.17275345249557   -1.83026015811897   -0.48682033141907
H          -0.36008612412693   -2.26981010802815   -1.53308939356501
N          -1.31462501867884   -1.78600783427038   -1.79892247559189
H          -1.17831278712596   -1.28322873841259   -2.67428556031513
H          -1.44485013008375   -1.03821646161959   -1.03323403785697
H          -2.09493498609469   -2.43307679880080   -1.85091498220503
