    26
        -50.46160233  Gyration_radius:  2.61718207176 Dipole_moment: 3.625
 S           0.49336549752023    0.49111605933952   -0.04143146373325
O          -0.71910154899860    0.38901429875717   -0.84276562248444
O           0.57031248611890   -0.61793138060767    0.93366763852478
O           1.71577844570800    0.35034251174786   -0.98111731463425
O           0.58736847647060    1.75382951618883    0.66487931032061
O           0.90806255160654   -3.30682273382606   -2.04398129266095
H           1.45378758648324   -3.91520209679633   -2.54453352614314
O          -1.44441176335388    3.43099704349862    0.77024793399595
H          -0.62393010604394    2.88914164597933    0.71972958829762
H          -1.41451371545092    4.01984808122582    0.01502681338454
O          -2.67996182301555    1.06929451822469    0.78202677719028
H          -2.10583173859409    0.72138754147964    0.06089642038157
H          -1.82460477949623    0.71795681881439    1.94706175496138
H          -2.52639857430521    2.03825448605375    0.75230312091175
O           2.38580977737850   -2.30266634848617   -0.04481342440923
H           1.70470615228343   -1.77988110756343    0.42447804693395
H           1.43055349754559   -3.05453829248170   -1.24839208579466
H           2.96538636254404   -1.64618629658090   -0.44092328444666
O           0.52341793912912   -0.80132364860200   -2.89032257479109
H           1.35752194223067   -0.09348432779648   -1.82798362536096
H           0.59008686203715   -1.76334197983710   -2.68600585827692
H          -0.28425769715995   -0.48889300586830   -2.45279542142004
N          -0.98366535230643    0.51788777793154    2.63173326843906
H          -0.30231954406723   -0.06828987401989    2.03635200208717
H          -1.26177801169061    0.04671315182606    3.48670523051992
H          -0.51538294259423    1.40277764143330    2.81995760818679
