    26
        -50.45011627  Gyration_radius:  2.45263480651 Dipole_moment: 5.255
 S           1.64767283517551    1.19195234113480    0.58343510333521
O           2.11953924155135   -0.27352637960737    0.59939066760303
O           2.69449490941931    2.03560597108376    1.02326880512700
O           1.38525626284435    1.45455639727598   -0.92994248785960
O           0.38179007497992    1.28246241255028    1.27953558235360
O          -0.45183330413400   -1.56773449665812   -1.94307635152535
H          -0.74206861250873   -2.17501389955862   -2.62483190177688
O          -2.15787257900291    1.75735895526308    0.68137338936835
H          -1.24161768822486    1.62660194127965    1.00624423639320
H          -2.33163785872551    2.69829940916605    0.74003652675119
O          -1.00658795252730    1.08071339842288   -1.63922151290354
H           0.39368300407771    1.35609663670061   -1.19823032704259
H          -1.01411162500366    0.11636671410005   -1.78014716182474
H          -1.58807549172978    1.27088990806407   -0.87174690784730
O           2.10739109716890   -0.90978008600767   -2.16705133258741
H           2.58498742743498   -1.28912989773497   -1.42235334567594
H           0.50528698520986   -1.37941795934715   -2.12239695095700
H           2.04813505426088    0.03921698736184   -1.97276847770003
O           0.21581561033408   -1.89576938925419    0.70004313923822
H          -0.45481361796841   -1.53698200369899    1.34615998068745
H          -0.19185153532688   -1.87206637282219   -0.18236336390236
H           1.32323682127165   -0.94252751115977    0.68127641495730
N          -1.44833569425042   -0.71426590048199    2.40155654996109
H          -2.28394537891021   -0.33425606313649    1.97281106186039
H          -0.80118358921172    0.05856894290315    2.52600426944933
H          -1.69335440620021   -1.07822004583819    3.31299439451750
