    26
        -50.46278518  Gyration_radius:  2.54875808187 Dipole_moment: 6.700
 S           1.08208732839497   -0.60924317408742    0.00040702807128
O           0.01045682831340   -0.27040709622787   -0.94007352021764
O           1.98490667811219   -1.66456225275607   -0.69076911707825
O           1.88869618112074    0.54420280252794    0.34329530245714
O           0.51047142457622   -1.27670487535665    1.17486727384176
O          -2.03508533981568    1.94736986402689    1.52032562859048
H          -1.97037632141373    2.88313336876469    1.32441543479790
O           1.10467911204324    0.72092383756454   -3.14184149414257
H           0.63709020015828    0.42632656512283   -2.33080094528540
H           0.76998524753292    0.17590845422853   -3.85592171149611
O           0.37077972408568    1.21071834964701    2.39234889117949
H           0.99933118148626    1.17337326924210    1.64300610415151
H          -1.15338245967334    1.68905007184544    1.88182179471515
H           0.36852150407445    0.30746934336207    2.72162330764763
O          -2.52141934600050    0.20299394847810   -0.41396185485808
H          -1.61915198541369    0.13422980708997   -0.79797180826915
H          -2.37031166488371   -0.95121501120438    0.45505400126026
H          -2.46074556805360    0.94461827328839    0.23479392406213
O           3.39202880592499    0.13864539650438   -1.85006380774618
H           2.73382310412525    0.45296137292399   -2.50398600420697
H           3.20829124526250    0.65031181591514   -1.04742887815396
H           2.63820791087891   -1.11137881166542   -1.21300065321769
N          -2.01108223345122   -1.76350973508931    1.12790732116270
H          -0.93533018194592   -1.61639469443346    1.15327985823457
H          -2.22547568375205   -2.68079176039668    0.75202104902411
H          -2.39699568165913   -1.65802911936031    2.06065287558328
