    26
        -50.46278509  Gyration_radius:  2.5488449057 Dipole_moment: 6.703
 S           0.82792663484088   -0.65665325338927   -0.64998238660896
O           1.73507417729790   -1.91362518715197   -0.71181936101445
O          -0.12409897743592   -0.86054695614876    0.44527021881338
O           1.71634351657060    0.46439472795903   -0.32486484429882
O           0.16154561302373   -0.49716616424494   -1.92630535459714
O          -1.67772990333391    2.70679207868554    0.33280028139915
H          -2.56153096459088    2.71831141510049   -0.03737514784979
O          -1.55175657190007   -3.03355338585473   -0.07296602198767
H          -1.10566548092310   -2.18634433336617    0.14245292093458
H          -1.43560196392737   -3.59864930866444    0.69261813044065
O          -1.01963146056922    0.91245727110842    2.16777672063928
H           0.37586783262160    1.31402924911292    2.20523821470681
H          -1.40501509484893    1.59959846165035    1.57276564403932
H          -0.86531116134071    0.13674810365169    1.58411365786371
O          -0.04262026401815    2.11981361688577   -1.68545351852357
H           0.88020365353496    2.19605936030366   -1.42664560045858
H          -0.13060211761725    1.17400134519634   -1.92115601598756
H          -1.07266323375559    2.52999263931176   -0.42708929297600
O           0.07692883437298   -3.17057653051191   -2.21063067357176
H          -0.63039936480258   -3.33757667035769   -1.55386298447959
H          -0.11375907255464   -2.28745537800049   -2.56211689082185
H           1.22181324281016   -2.54706100889842   -1.29561744255815
N           1.45013424660907    1.52606065341934    1.99870686013686
H           1.61945753749785    1.06394941747025    1.03052921024481
H           2.05398469209647    1.10161705928109    2.69431292575436
H           1.61710565026114    2.52538275741030    1.93930075078334
