    26
        -50.46278506  Gyration_radius:  2.54823033747 Dipole_moment: 6.686
 S           0.56372423770752    1.09850057966515   -0.09385998651158
O           0.01883866641207    0.23818061514878    0.96000427034102
O           1.37415137349569    2.22316847072489    0.60193696573743
O           1.53222610757522    0.34005128481433   -0.89303803012130
O          -0.48070624522954    1.70202885627298   -0.89619620647317
O          -1.43244458489645   -2.46075361901734   -1.45279407209462
H          -2.38742530415410   -2.42287507471000   -1.52247965771109
O          -1.54323460085530    1.70725667980936    2.51920567198194
H          -1.19655863596746    1.59053218117463    3.40528515470876
H          -1.03350548186063    1.09743088792041    1.94354069018781
O          -0.70833815872102    3.68892437402131    0.90151220485336
H           0.68527462718059    2.92538656897951    0.79640646736676
H          -0.98556411253060    3.28358558396886    0.06562485509730
H          -1.16448416160158    3.16967464564545    1.59564601982698
O          -0.25969126593182   -2.37555504704155    0.92169369845147
H           1.08128114463424   -2.32968705046306    0.36694910045327
H          -0.30999837736418   -1.40888885641537    1.09341183199694
H          -0.80249531398404   -2.51431211245471    0.10883055131754
O          -0.52098329324282   -0.26451442990002   -2.64991440297190
H          -0.70938607522814    0.51084520380112   -2.08308803606630
H           0.43893945383942   -0.26424951356052   -2.70721881004511
H          -1.09789774192770   -1.66743926603466   -1.93637891671565
N           2.03774987282810   -2.06364928537959   -0.13981656528372
H           1.88310222909615   -1.03490772686432   -0.45037296148133
H           2.19269329014879   -2.65139435686234   -0.95259662024331
H           2.82473233966435   -2.11733957411821    0.49770682449211
