    26
        -50.46278532  Gyration_radius:  2.54867158912 Dipole_moment: 6.700
 S           0.71354196495129    0.14846930851848    1.00310296813937
O          -0.28659143190138    0.86046195018808    1.77220518475160
O           0.58018278931466   -1.30895219350261    1.10207833315011
O           0.70757152711980    0.54578670668900   -0.40748634184596
O           2.11704611615891    0.48650621269624    1.57106378982077
O          -2.78660300799965   -0.96260934036970   -1.24455839064279
H          -3.46655257595096   -0.29658960565185   -1.35571908884030
O           1.18523067553657    3.14964537509421   -0.55116463343810
H           0.93838259072380    2.19984928007975   -0.56160327238819
H           1.94632127605618    3.23411986209931   -1.12782636334648
O          -0.43346873003662   -0.68596697877533   -2.43041627328602
H          -0.01345317913623   -0.05038574427907   -1.80919795701707
H           0.13405841740696   -1.86411133245503   -1.79854646604825
H          -1.37389506700134   -0.74013908287098   -2.13487765096627
O           1.43516670974182    2.89774191804110    2.11629102706462
H           0.56481067295017    2.50345059772966    2.28015372080727
H           2.03220335167218    1.44383065195439    1.85678764513471
H           1.38182134209457    3.25382619454124    1.20530153653368
O          -2.15700578808166   -0.94604734212974    1.34234285185036
H          -1.55478120231362   -1.66176333363159    1.56502272790763
H          -1.63518348697198   -0.14401819042762    1.54822807952155
H          -2.58732718552570   -0.98153724876742   -0.27762670217388
N           0.55011462672663   -2.62809946133265   -1.10200404567496
H           0.61185607197585   -2.10172032820006   -0.15426220773512
H           1.47435459427803   -2.93076035841567   -1.38986462741070
H          -0.07780107183920   -3.42098751697694   -1.01742385396027
