    26
        -50.46278484  Gyration_radius:  2.5484202918 Dipole_moment: 6.690
 S          -0.85410233659607    0.15676709831182    0.88268206575604
O          -1.97022510620017    0.18231572376281   -0.04072783462575
O          -0.45996575546309   -1.20347588331755    1.26489431205400
O           0.31042698207290    0.87406197491078    0.35643711496944
O          -1.27560686252177    0.86332230469327    2.19755417312145
O           1.01158420877383   -1.63211595049640   -2.55340327923445
H           0.76337555144152   -1.28969308253928   -3.41329564707495
O          -0.38489474969997    3.39213227734217   -0.09521478007875
H          -0.08402764255466    2.46159848225660   -0.01286681779020
H           0.23711740903608    3.91955651946338    0.40866436251837
O          -2.72534278402822    2.56773685416410    0.94511615868780
H          -2.01484669487968    3.09938521543739    0.53018553113561
H          -2.87592127966735    1.83220663304012    0.33176688283635
H          -1.88619405888382    1.59554195188884    1.88703830237975
O           2.40617842989918   -0.13904921850024   -0.86594242333123
H           2.33125700906254   -1.11701895212962    0.20542084374846
H           1.99187793627215   -0.63698790030745   -1.61090252863787
H           1.68435285148675    0.42607179983518   -0.51105256849736
O          -1.26926538672517   -2.05275069721589   -1.24704851441439
H          -1.64701107557250   -1.18987331465095   -0.98036974931445
H           0.16220575246314   -1.82707405809128   -2.08894868306530
H          -1.12575436497660   -2.49796421268281   -0.40715353979024
N           2.02551822732827   -1.80763172302823    1.02477921468012
H           2.11527358845672   -2.77584782003203    0.73390249456992
H           0.97962100908068   -1.56456029042088    1.18532852398483
H           2.55436915250529   -1.63665372184509    1.87315638511320
