    26
        -50.46278511  Gyration_radius:  2.54849299859 Dipole_moment: 6.688
 S          -0.49604792892519    0.57561546954497    0.97840478634417
O          -1.71749735671877    0.73650682123602    1.92100743849127
O          -0.00785151072278    1.89058191877653    0.61615616530192
O           0.48837397789886   -0.21345250148651    1.72673702554185
O          -0.94586100332028   -0.18478673831883   -0.19090583008929
O           2.57451122336440   -0.57487806485545   -1.81040867627848
H           2.68875000791168   -0.01601342958396   -2.58034561513419
O          -2.89087602934368    1.17294823839213   -1.37503951087056
H          -3.63253912616551    0.56690346504071   -1.41409492747873
H          -2.13404760320512    0.65629379083061   -1.02370075906993
O           2.47421734463345    1.07018354404720    0.28097461331869
H           2.58165434976502    0.03555358065880   -1.03441431768029
H           1.61855173706126    1.54549001744458    0.28042547083689
H           2.45680491277118    0.58967011084557    1.11355480538303
O           0.37349067562201   -2.02277127388454   -1.52966354780376
H           0.72324921675839   -2.48473571508836   -0.19821131864663
H          -0.23980509635909   -1.32223883313712   -1.21424585100272
H           1.19287965273355   -1.53811620982082   -1.79132794331468
O          -2.52085442092406    2.84412259579397    0.70115485197896
H          -2.17186825559479    1.56302865875872    1.58052613942224
H          -1.57388261264942    2.99816916746812    0.56211536593368
H          -2.83265575831417    2.43073942714699   -0.13036178114193
N           0.95545383641377   -2.59545281682306    0.88623484094796
H           0.36061366907427   -3.28958001544072    1.32554083817623
H           0.74022460765527   -1.61236117185739    1.29416897949609
H           1.93501151058737   -2.82142004566946    1.02571875723063
