    26
        -50.46278514  Gyration_radius:  2.54879712185 Dipole_moment: 6.705
 S          -1.15245215154268    0.15589505499673    0.43498406034940
O          -1.52101941772145    0.00309521252178   -0.97651285958209
O           0.03083280479932   -0.65951093010635    0.72289728081692
O          -0.96627480271808    1.53902737507521    0.82347241233610
O          -2.33117912004308   -0.43934682357278    1.24904240564292
O           2.35955972641520    1.02976539594796   -1.90037219952919
H           3.02136397997189    1.59932866991403   -1.50558230165904
O           0.52526009371204   -0.54011813438404    3.32480929468471
H           0.54012005223525   -1.45209634522324    3.61979973613121
H           0.43594653302462   -0.57025451957210    2.34792853455647
O           0.02095079407542    2.24402240106131   -1.51669980005954
H          -0.24470185337835    2.16466572089999   -0.57802790864585
H           1.50036814935495    1.50396862575498   -1.79151770358369
H          -0.69124176903746    1.79860297306072   -1.98430152113059
O          -1.72764092230877    0.93153787600581    3.33037681068480
H          -0.90856574459382    0.46313205700972    3.59353835032031
H          -1.43857310835516    1.59242144923562    2.68266636030344
H          -2.25427291676501    0.01260900924341    2.14083712069343
O           1.93267162028395   -1.40004517031623   -0.93350318182042
H           2.25448213335482   -0.53235649243669   -1.27719281883230
H           1.37209938807656   -1.16851187894263   -0.15982221284651
H           0.81200504329590   -1.66027272560247   -1.82017369121291
N          -0.16111960062996   -1.67825250492483   -2.36283652341010
H          -0.05314607223705   -1.33146069037245   -3.31054917531243
H          -0.78517352668124   -0.99957417422578   -1.78905059606214
H          -0.57029931254727   -2.60627142100972   -2.36420987296641
