    26
        -50.45300963  Gyration_radius:  2.43480476875 Dipole_moment: 5.197
 S           1.85700957614443    0.60708022478430    0.75569471588669
O           2.18820437038592   -0.66493679158739   -0.04132757266504
O           0.67506514585823    0.19953810415090    1.66434081143422
O           2.96503474964064    0.99792752338840    1.54295384943739
O           1.36232339521094    1.60325440177730   -0.18279721051212
O          -1.10871879836026   -0.50027329604201   -1.98051772790604
H          -1.71091849454392   -0.43479162247760   -2.72250513090660
O          -0.81964458271321    3.13729069955091    0.02169314260860
H           0.05015972209648    2.72934572616686   -0.15639048534858
H          -0.67023464427442    3.80977596111620    0.68779248276889
O          -1.52825058933851    0.60410085385605    0.46831330688824
H          -1.46231135840285    0.21352890183474   -0.42636410133977
H          -0.21777277485992    0.34804289634805    1.18173340959021
H          -1.48210394744117    1.57519352384143    0.33061183497490
O           1.26819068859614    0.44297391271158   -2.55193720607909
H           1.35904434027744    1.01144665342445   -1.75838915131438
H           1.94036427764283   -0.23649901184558   -2.45317469446988
H          -0.24219785329136   -0.11515703817718   -2.28394544984610
O           0.22456991970005   -2.20012376274794   -0.28898532251670
H          -0.34943014916465   -1.77886505819621   -0.94994369271737
H           1.38368612269812   -1.32280941140102   -0.12363567190181
H          -0.29738642806023   -2.21768374897575    0.56052230469047
N          -1.22333957284667   -2.03830216275820    1.95328854542310
H          -1.89756371486416   -1.31100580673831    1.74421374927395
H          -0.55820316450644   -1.65023545643753    2.61129973225431
H          -1.70557624558297   -2.80881621556391    2.39745551229238
