    26
        -50.46278513  Gyration_radius:  2.54835142651 Dipole_moment: 6.690
 S           1.12151369016744    0.43654371489958    0.29675208928723
O           1.71490027293940    0.12973261697259   -0.98875047098496
O           1.13321108495178   -0.70455013286102    1.21850882654775
O           1.95946187033321    1.54666105509995    0.98330786538916
O          -0.24698178230630    0.94344139724690    0.16306679488018
O          -1.77110597289405   -2.39586069348889   -1.15890365129298
H          -1.97328507572407   -2.37420955658493   -2.09531549586813
O          -0.19103305872955    3.14397924964228   -1.31408721092601
H          -0.28715382383200    2.30204762265675   -0.81896160529178
H          -0.60559963282161    3.81958628154354   -0.77497719139576
O          -2.49595195801116   -0.39453170291858    0.41960734684721
H          -2.37915282935434   -1.12434591017859   -0.23471849021153
H          -1.82215291184081   -0.94488379034558    1.58319657232901
H          -1.78184949567481    0.24700161299980    0.20835895295333
O           2.46201432360917    2.70005203212570   -1.25096415957847
H           2.44040596145590    1.79681538809471   -1.60240518462721
H           1.57283059993293    3.06480267108663   -1.44043426726389
H           2.26242842471325    2.12088015122902    0.21911885817072
O           0.88492896069147   -2.37150741373261   -0.98040286315910
H           1.18301881813669   -2.49516366748225   -0.07468311599408
H          -0.78598542415094   -2.43020903883759   -1.09936606256875
H           1.21362800855344   -1.47661149435841   -1.20212028307444
N          -1.09499917829379   -1.31515504549729    2.34186153431338
H          -0.13001408893427   -1.04799647096705    1.92179035792909
H          -1.16087161491196   -2.32274784803161    2.44444651094482
H          -1.22220516800904   -0.85377105832966    3.23607433268297
