    26
        -50.46278485  Gyration_radius:  2.54854972204 Dipole_moment: 6.680
 S           1.00664892901249    0.02999007352986   -0.71906251792703
O           1.69864985093845   -0.29143767747482    0.53387854240946
O          -0.15362998714232    0.87832370720110   -0.43305311140060
O           2.00399957344056    0.87798244718935   -1.55083589516967
O           0.64384237525160   -1.14736775482694   -1.48137932620651
O          -1.91377379908122   -1.66649292268241    1.94510083978098
H          -2.67632280444492   -2.08974929992965    1.54808038115633
O          -1.22699455738858    1.62866583021777   -2.73819599973795
H          -0.91830585887564    1.33283346183722   -1.85482847787049
H          -1.24203874677507    2.58671625464528   -2.70868557761772
O          -1.58851526709380    0.95730339418723    1.76855742979252
H          -1.87005426820436    0.01620751046113    1.86673268058326
H          -0.28331778563828    0.93086323174018    2.40467069713424
H          -1.23249358388860    1.01747487599322    0.85421831964475
O           0.21095158823112   -2.62315468071319    0.65834512921968
H          -1.12679848660217   -2.05700340644529    1.49402931903314
H           0.24626546449307   -2.23164406233333   -0.23803077344329
H           1.03248257874053   -2.32385477778498    1.05862683029176
O           0.85549369752831    0.26521024334028   -3.75975564825107
H           0.03235366898207    0.78548395379595   -3.65330055758321
H           1.69708635880488    0.74419311004711   -2.49617611917595
H           0.67674607749086   -0.57654673936906   -3.31328914893548
N           0.78721530353834    0.78796503876266    2.67984813519310
H           1.22530156179800    0.35984839467528    1.78348577399618
H           0.87775044209383    0.13777809145175    3.45390434666654
H           1.23745765477204    1.67041170246689    2.89711471844266
