    26
        -50.46278527  Gyration_radius:  2.54816056857 Dipole_moment: 6.698
 S           1.02000696230518   -0.70043622714187   -0.09282314588591
O           1.25910565160970    0.10843923195338   -1.29288494156885
O           0.33949518162492    0.11329359439697    0.91828971657082
O           0.30421303309716   -1.92845707440845   -0.37297914715064
O           2.42228169166918   -1.05462336570448    0.46784425681258
O          -2.76852172590681    0.95980803949053   -1.27497427768878
H          -3.55668706105258    0.48455057006991   -1.00837263078994
O           0.13158527169470   -1.30502181154175    3.14851159850805
H           0.54155260754363   -0.76731846275407    3.82800146097343
H           0.11738649631839   -0.75487177764261    2.33593164179586
O           1.52306184149996   -3.10743563598861    1.71425690174087
H           2.25818426166923   -1.88391094625170    1.00697330180839
H           1.01801153507888   -2.65373691571413    2.42031568026865
H           0.90944593175210   -3.16197662301891    0.96570309986477
O          -1.25461688451285    2.16795391827219    0.53323522763029
H          -0.23683144314717    2.54610207414570   -0.43129040951919
H          -1.94735785153918    1.78375183906329   -0.05585348320724
H          -0.75864394773800    1.39073073145802    0.87423703159641
O          -1.12820246412587   -0.86311253788218   -2.31150519717824
H          -0.75671522926893   -1.41158532081045   -1.59088465446547
H          -2.18157645529846    0.28717724812408   -1.69693996972056
H          -0.34837988627622   -0.45947532155411   -2.70310258953702
N           0.58582185693556    2.58518558403981   -1.18211832070631
H           0.92708862212608    1.55602066848059   -1.23964285100693
H           1.34404290498708    3.18388941611720   -0.87340148520957
H           0.23624911865937    2.88505909517992   -2.08652681412031
