    26
        -50.46278509  Gyration_radius:  2.54882976512 Dipole_moment: 6.707
 S          -0.13239324601911   -0.88003102520247   -0.86647492944581
O          -1.10569023221020   -1.77380175073235   -1.67926831171412
O          -0.89361088253993   -0.31068582104902    0.24892670282533
O           0.97671686040586   -1.69167077559427   -0.40858961886325
O           0.28167321415262    0.19382347760568   -1.77578717570862
O           1.91414665865067    2.07888092526176    1.50456226541491
H           2.32344674115581    1.78676082424532    2.32027947774917
O          -1.81931066001412   -2.29666141710666    1.74132393663665
H          -1.45051060828737   -1.51867821434444    1.27025504129311
H          -2.76705182448801   -2.15883516274413    1.78329975298435
O          -0.67308609088172   -3.80269448379682   -0.17174291228604
H          -1.13890304111893   -3.50003376201522    0.63503475200797
H          -1.05842132959942   -2.66003152180554   -1.21262264095872
H           0.21777697199199   -3.42721655153508   -0.09970288450099
O           2.66321607225819    0.33325795939537   -0.36150540872446
H           2.39409797980417    0.61594555378738   -1.24007628047159
H           2.22814625045958    1.45222615415716    0.80918224078541
H           2.18168559818044   -0.51035594888863   -0.24148787235719
O          -0.72421139059567    2.10925703427747    1.26112151400773
H          -0.68790579431399    2.49644661393931   -0.13827828372706
H          -0.87959344882414    1.15611088830755    1.07736620116830
H           0.23123879132676    2.16439645870481    1.50317890161686
N          -0.56180683583497    2.56109319860016   -1.24362950549366
H          -0.23322847946597    1.56402341723647   -1.52134756410356
H           0.15133041688553    3.24091825346279   -1.48723786052798
H          -1.43775169111737    2.77755568596481   -1.70677952760923
