    26
        -50.46278486  Gyration_radius:  2.54818387931 Dipole_moment: 6.683
 S          -0.80791805537402   -0.91452722477695    0.21477413418944
O          -2.26971278993838   -1.33084457008170    0.52403541041828
O          -0.28213320368153   -1.78355077708830   -0.81827049024375
O          -0.83464235206879    0.48811416571734   -0.20921970990345
O          -0.08016183950104   -1.02855363181511    1.48333654666424
O           3.04071171021744    0.91681733656010   -0.36992280533634
H           3.37635295822993    0.94496843333632   -1.26704326902154
O          -2.35925609951340    0.68778568832871   -2.36874574289812
H          -3.02704629726013    1.33851381299075   -2.14619827625790
H          -1.73221015131684    0.67035028667875   -1.61394291439151
O          -2.72867926907479   -1.94015615310643   -1.92394593419434
H          -2.62555707782335   -1.62235370440140   -0.36700401437145
H          -2.74524910808868   -1.03879320587997   -2.30729588990735
H          -1.79315806565304   -2.19457109549615   -1.92703789494392
O           0.93035746083706    2.36392321577066    0.31734499165435
H           0.21631046805355    1.79563684719923   -0.04812918774463
H           0.85866637127038    1.80203305912530    1.65406634612116
H           1.76742309367873    1.96216848603091   -0.01831860284766
O           2.20657273212865   -1.58039554456280    0.02411349986748
H           2.77399254584979   -0.02113251967207   -0.21421250940399
H           1.93354774538699   -1.72423289062663    0.93495828301887
H           1.38010844564179   -1.72456101786651   -0.48012880091011
N           0.73928880192362    1.15780855188503    2.55590849765406
H           0.36018481012064    0.22386796375312    2.15294878498408
H           0.06879987291262    1.55022933111140    3.20791792390568
H           1.63340730305713    1.00145515690505    3.01001165389770
