    26
        -50.46278488  Gyration_radius:  2.54904828778 Dipole_moment: 6.704
 S           1.04464714903034   -0.34461225889862   -0.57498045046957
O           0.63421952165859    0.48198509233558    0.56330372739526
O           0.71976955340660    0.27647658858902   -1.84277830970514
O           2.58306964463683   -0.52273286165361   -0.48398195821280
O           0.47548240564378   -1.68931416628299   -0.43492251711379
O          -3.19944188286518    0.12862426629384    0.00527908003305
H          -3.60343940622544    0.92735803582456   -0.33692062186109
O           1.87213026705030    2.82015672205718    0.38981035338906
H           1.33400502638857    2.00371709870597    0.47330928210392
H           2.33391431897216    2.92195161822787    1.22367711522648
O          -1.52035388443503    0.24632269872636    2.05155843015210
H          -0.71131664218352    0.53982039662583    1.57669610754351
H          -2.24038255825504    0.30837969988539    1.37899946424535
H          -1.19075050753090   -1.16720414893910    1.98889353773100
O          -1.67323429155907   -0.82252109783889   -1.95900068395749
H          -2.66768485313617   -0.24125176357212   -0.73984745192114
H          -0.87098940998656   -0.27071871081713   -2.05774495846135
H          -1.31748615246035   -1.68970364845517   -1.74532098244576
O           3.02202390628549    1.66342338431869   -1.75071546886559
H           2.94334625848143    0.28227010601573   -0.96104766823587
H           2.20277398371235    1.43576187238225   -2.21637477532240
H           2.74858868240957    2.30026671667617   -1.05853232475630
N          -0.82874103202542   -2.18634763143762    1.72111146935667
H          -1.60707724818746   -2.80417528161077    1.51482361579752
H          -0.24326413540176   -2.57770560992183    2.45097870701233
H          -0.23980871354094   -2.02022713716762    0.82372730121398
