    26
        -50.46278525  Gyration_radius:  2.54873259303 Dipole_moment: 6.698
 S          -0.66936592429887    0.07438355088155    1.04322252876772
O           0.68899368228411   -0.28987250286014    0.63118008823697
O          -0.89910474666554    1.50196646306179    0.95554336521200
O          -1.64150674938523   -0.70952417201828    0.27370488579548
O          -0.83774584315088   -0.37047639959487    2.51978371994313
O           0.26256682499521    0.64410346777332   -3.12527477625680
H           0.72189165427108    1.45006803403389   -3.36539630593941
O           2.41154025792439    0.97143282868901    2.20289403809706
H           1.82887226736567    0.53086958521379    1.54747597292669
H           2.96112958921443    0.28140718261713    2.57806772505180
O           0.15938836021432    1.81893533228331    3.40757407456197
H          -0.48672146173026    0.40941915186388    3.04326597301006
H           1.09454400820446    1.67803070069573    3.15232811435299
H          -0.25709650904012    2.20511538024374    2.62191431698290
O          -1.74345750893123    1.38531323917911   -1.53847152510688
H          -1.39461847534047    1.64231713284182   -0.66082998191482
H          -0.50393748144024    0.92872445570529   -2.57188952390248
H          -2.32643331556006    0.64836241677693   -1.33486199902380
O           1.48477481583768   -1.22156013948134   -1.69492685240317
H           1.17204606615028   -0.52002673121083   -2.31516042294300
H           1.40066161548225   -0.81950712693375   -0.80188892616238
H           0.29484917219544   -2.04488155883953   -1.56813757943247
N          -0.70079599667903   -2.48385614919493   -1.32790639979638
H          -1.28248617735021   -2.53783601644469   -2.15783998294807
H          -1.12737493246049   -1.77750006625728   -0.62190866511432
H          -0.61061318199582   -3.39540803947020   -0.89246188223558
