    26
        -50.46278440  Gyration_radius:  2.54776043026 Dipole_moment: 6.682
 S           0.00517787951967    0.64704231697083    1.05515882153013
O          -0.97708082769593    0.16150008732892    0.08202801549616
O          -0.72962200102270    1.63414289744775    1.99923671348529
O           0.56295935305339   -0.43034779902999    1.84687551503123
O           1.02904931058053    1.43814152316252    0.36379721768343
O           1.60011161148072   -1.81577584484036   -2.08407518586951
H           1.54018723163693   -2.76477135945465   -1.96563073747640
O          -2.93354722474003   -1.05758015054833    1.39123914011927
H          -3.73681067778808   -0.61266682429504    1.11599147374931
H          -2.21076013191193   -0.67944144273917    0.84556990835085
O          -0.58788689197205   -0.37033615257375   -2.46294033078593
H           0.15844336706759   -1.01572638391492   -2.42939206483360
H          -0.90641449177907   -0.30787807107507   -1.53504212619057
H           0.12564627814038    0.89351632239500   -2.43032491607001
O           2.57419620298524   -0.85115590664870    0.19729842136407
H           1.87832833251947   -0.90367185508549    0.88355901617220
H           2.00356029941038   -1.46800222995651   -1.25240336435222
H           2.74811262941404    0.09274679850367    0.13662408462757
O          -1.52138101292589   -0.25826691922693    3.53756164903107
H          -1.11707883096069    1.03914563449993    2.70729523273160
H          -2.18806119318483   -0.66895515124064    2.94897165250662
H          -0.68081553816379   -0.67160474977645    3.28773700665710
N           0.70991623079304    1.80347397372490   -2.15957847845614
H           0.84278270459473    1.70999340575365   -1.08633008367088
H           0.19740620933473    2.65260369878228   -2.37159806236988
H           1.61358116044241    1.80387418246632   -2.62162850482786
