    26
        -50.46278518  Gyration_radius:  2.5485492227 Dipole_moment: 6.692
 S          -0.23978172679779   -0.25216544259172    1.19054195765487
O           0.84020637923470    0.55723420281671    1.71713670253910
O           0.15336756983661   -0.96793865532175   -0.02642400671754
O          -0.62791571524536   -1.31911865684802    2.24759135794988
O          -1.45971299613181    0.52016737429768    0.93195915281096
O           0.52734442859019    2.19129893464382   -2.27189823542430
H           1.44302198814691    2.40696432981923   -2.45433292414627
O           2.21701569466158   -2.53002465104443    0.54787466296817
H           1.94451003015301   -3.41156130232455    0.28800306264488
H           1.50083853726863   -1.92551765943602    0.25658284513966
O           0.15928989451374    2.68485777643944    0.31870413972987
H           0.38456791218950    2.41667632518825   -1.32128356600776
H          -0.76320766305032    2.59044152302145    0.57267532133796
H           0.60832183021693    1.99691397019785    0.85093280008041
O          -0.32889027771653   -0.30304143132310   -2.52374260886607
H          -1.65164647225871   -0.01009936466848   -2.00133768616928
H           0.06612559163523    0.60037710737095   -2.57566576656714
H           0.01133833212211   -0.67506610039058   -1.67984714782681
O           1.79914480396108   -1.58377322510574    3.03202660016510
H           1.86271062041929   -0.64167881539788    2.81232830588939
H           0.24518609653385   -1.54823946563935    2.68420621996623
H           2.16413245865285   -2.04872516104356    2.25088928338866
N          -2.54098858359496    0.25206011863308   -1.38279769853423
H          -3.24000711623613   -0.48246936036233   -1.40546806786288
H          -2.93987272261660    1.13716419387666   -1.67868309082277
H          -2.13509891318397    0.34526343627136   -0.37997159398639
