    26
        -50.45300979  Gyration_radius:  2.43482754037 Dipole_moment: 5.196
 S          -1.81289696474183    0.44703699141119    0.94963753671109
O          -1.44463184523890    1.53905388110490    0.06095163572005
O          -2.86718977868731    0.71580083481781    1.85329434152843
O          -2.15218306196275   -0.77304155807689    0.07820769465544
O          -0.54138111975272    0.03034592349245    1.72316921589950
O           0.96076139587785   -0.28271180799551   -2.09724199673786
H           1.49401533799967   -0.13042845847916   -2.87828444874023
O           0.67390896413152    3.16468843665623    0.21926103315062
H           0.54970906498105    3.77318260003828    0.94905384857166
H          -0.18792854595559    2.72684910349355    0.07721693740234
O          -1.49634685498661    0.57698989935895   -2.39660138309541
H           0.05526774736268    0.07956076368521   -2.29729928359382
H          -2.12610863745986   -0.14245276611197   -2.30140601762246
H          -1.54629510855176    1.07524270255175   -1.55374834084897
O           1.53368328686564    0.64494003070950    0.39407778996641
H           0.30013012854203    0.26419487355979    1.18552086905924
H           1.41117413487437    0.32381766258495   -0.52191279061979
H           1.43161527350943    1.62010710288994    0.34220346129492
O          -0.14799221911320   -2.17842956829928   -0.45299449587369
H          -1.32820456024818   -1.37919439678246   -0.12279147368858
H           0.34876980448264   -1.67622870325710   -1.11999790203477
H           0.44366756623133   -2.23646545885220    0.34763526083640
N           1.47498464765894   -2.12022047971436    1.67140853907062
H           2.02975170225397   -2.89643768157490    2.00793019717813
H           0.85060744053648   -1.82374235067159    2.41178089745593
H           2.09311219139153   -1.34245757653870    1.47092887435437
