    26
        -50.46278506  Gyration_radius:  2.54882176049 Dipole_moment: 6.704
 S          -0.29251194767714   -0.00527856188499    1.20764636813264
O          -0.59858173856611   -1.41680261744848    0.95205426715142
O          -1.28346167231500    0.45153886460388    2.31032421456427
O           1.06125167058871    0.20272806129510    1.67947562140775
O          -0.58324252261786    0.78383353139182    0.00733316842132
O           1.82922702641095   -1.13693920399933   -2.36855948733069
H           2.61480765930253   -0.63521659878591   -2.59079908939740
O          -0.23946529176616    3.34955490092163    0.57893602026154
H          -0.31784469949897    2.41590950186218    0.28672869269753
H          -1.06989289662555    3.77106467836209    0.35166387288975
O           0.24658847566594    2.37575985158528    3.03978337081369
H          -0.82305316760070    1.23662667384904    2.73120527154118
H           0.95777695511069    1.76704492517392    2.78793754764041
H           0.13548899645553    2.96565284638615    2.26566215474057
O          -0.56398723040179   -0.00697263289852   -2.49932104602811
H           0.35525869495765   -0.35305658080577   -2.59800942646717
H          -1.24950634713365   -1.16473304038811   -1.95206542940052
H          -0.55288489001386    0.48937896599345   -1.65083086840109
O           2.05363865605041   -1.75005424395252    0.21332243128058
H           1.36140551077572   -2.35406979627700    0.49658102365794
H           1.93740924239098   -1.39640645401607   -1.42216940259374
H           1.89354905204514   -0.95463713636546    0.76069765299136
N          -1.64980877008245   -1.99067249046330   -1.32015301764575
H          -1.25403609460765   -1.77078625678931   -0.33294084209314
H          -1.30442692719026   -2.89016011224904   -1.63903479745265
H          -2.66369776461452   -1.98330707479333   -1.29546826157723
