    26
        -50.46278528  Gyration_radius:  2.54852472267 Dipole_moment: 6.698
 S           0.04402779772551    0.41424073823985    1.16986505578865
O          -0.44376197888315   -0.93291362395308    1.48463431181528
O          -0.49201041234220    0.83823562593847   -0.12650897148647
O          -0.56400060911076    1.34929670530300    2.24796381284901
O           1.48802612670507    0.51811858557938    1.22076619555768
O           1.01616258103823   -2.10345430037561   -2.18621664749758
H           1.75584829647989   -1.83833501954466   -2.73470812794154
O           0.22033098370793    3.35590265687989   -0.55288226770036
H          -0.01727863563216    2.40608198423611   -0.48512839242820
H          -0.59972744523499    3.82554617670092   -0.71374377561271
O           1.27129679157970    3.10861893115759    1.91207300059265
H           1.00595950236062    3.44508803195935    1.03122171060274
H           0.06137003141429    2.13291851874726    2.26089083933218
H           1.82983085710476    2.33844826028666    1.72583250708705
O          -1.21289813588488   -0.67095845912440   -2.15515602757145
H          -0.93119008607085    0.05151060693249   -1.55112726562032
H          -0.38834830275626   -1.18379029075932   -2.33302552293822
H          -1.82685728420581   -1.46972136284203   -1.10812398388862
O           1.86849077829938   -1.93334935699224    0.33077636265114
H           1.22109695672175   -2.28559066404618    0.94831080762461
H           1.35054278342853   -2.07876980152251   -1.25754170435571
H           1.93727800226028   -0.99289924439256    0.59307224580862
N          -2.11461721265758   -1.98085649384518   -0.16094621653460
H          -1.44987291814749   -1.54244275890873    0.57759866216312
H          -1.95016413440141   -2.98034380300377   -0.22476208585145
H          -3.07953430385338   -1.79058167248611    0.08686547759677
