    26
        -50.46278509  Gyration_radius:  2.5485323087 Dipole_moment: 6.701
 S           1.19659275672838    0.28552388161439    0.16499442987964
O          -0.08161018594190    0.97343990155287   -0.03699290027204
O           1.66088564826264   -0.36399885600463   -1.04376438854342
O           2.23481145071012    1.35773215411163    0.58836608643412
O           1.08322520198669   -0.63477766360414    1.30156731288062
O          -2.21243698253182   -2.23689757172971   -0.58533129848223
H          -2.47104915034105   -2.35751908721641   -1.50013251605130
O           0.22807456933732    2.78895998085220   -1.94401505390096
H           0.03206795407126    2.09159489844011   -1.28188332164960
H          -0.04996070641497    3.61728144181172   -1.54965373820596
O          -2.49286779398934    0.12666106134620    0.57836477121427
H          -1.70032118066560    0.57903894458329    0.21285226179627
H          -2.54189376654512   -0.72757241654957    0.08576103705127
H          -1.83926793513947   -0.28572576632797    1.80782739637120
O           2.78168773919849    1.94543822657199   -1.84741096046684
H           2.57864896542677    1.71137136772557   -0.28445795065364
H           2.60197696108190    1.00587053267960   -2.00451269844932
H           1.95003886216299    2.40359469939816   -2.08819122426372
O           0.42060234765834   -2.62731243630991   -0.50837198870714
H           0.75293578495887   -2.62765351210310    0.39378893757651
H          -1.24350514729566   -2.42427015382904   -0.55508716830333
H           0.88022480571820   -1.86472857635289   -0.91477223153024
N          -1.13095462938023   -0.61313989171270    2.60355211388211
H          -0.16670008503168   -0.60692600013744    2.10413080642124
H          -1.35079174860746   -1.55188610808977    2.92052501563819
H          -1.12041375532181    0.03590097927112    3.38284727027288
