    26
        -50.46294278  Gyration_radius:  2.5713318244 Dipole_moment: 5.005
 S          -1.03358074122394    0.38192717303077   -0.43725586846802
O           0.07213210524064    0.79834694810471    0.41954854704407
O          -0.71357547235204    0.50198790160348   -1.84442003345880
O          -1.47555389731990   -0.97738082421258   -0.08444653989137
O          -2.24574163175995    1.29948005855070   -0.11031508431049
O           2.53593519894662   -2.14171329735435    0.23762695077646
H           3.35243417281877   -1.91234076370442   -0.20821623472996
O          -0.19055957656920    2.98672109301740   -2.57862542828906
H          -0.31136647743863    2.03054066475939   -2.38727675544721
H          -0.82890629192928    3.20132266046443   -3.26096414996926
O           0.57140664033052   -1.88164363134501   -1.56212376179926
H          -0.26246150263419   -1.84689767654884   -1.06682834839590
H           0.53872940708180   -1.06499444943085   -2.07633096783692
H           1.83064867396032   -2.10136205059020   -0.44891058044356
O          -0.72134400894151    3.36181067616993    0.02440601031039
H          -0.08607177604850    2.71760339969877    0.37021686118867
H          -0.48000803770545    3.47501051684304   -0.91966205371458
H          -1.83616356078936    2.20922425788185   -0.03336580933362
O           1.49739578211854   -0.59170820232516    2.12217471443166
H           0.29777248604092   -1.37567571588646    2.28471816384287
H           2.03352230368365   -1.15331972985143    1.51308005079342
H           1.09016104291050    0.08567996059491    1.53469006618412
N          -0.68564746648551   -1.90129688577659    2.18669813858136
H          -1.08827661227400   -1.51736288364269    1.25985389505070
H          -1.30847168680191   -1.67926687582840    2.95578109320743
H          -0.55240907268576   -2.90469235458702    2.10994712490288
