    26
        -50.46294304  Gyration_radius:  2.57104318378 Dipole_moment: 4.999
 S           1.00687521912536    0.59524975744155    0.19463660309545
O           0.49123434093403    1.90470879966647    0.53606987120285
O           0.24088756790024   -0.04019425221896   -0.87286598348786
O           2.47175739337655    0.73949500010820   -0.30684887661072
O           1.08861766643971   -0.29050809239900    1.36781576681715
O          -2.96748651311443   -1.21857708138550    0.88137916212287
H          -3.74551621719654   -0.74474866638639    0.58428187158066
O           0.59465788565644    3.61041587634498   -1.48029926583527
H           0.46325380025905    3.03292097213023   -0.69620968121593
H           1.13461281370884    4.34343037116156   -1.17989012491195
O          -1.35769572586705    0.58314249770336    2.03305066212614
H          -1.17779438715693    1.39762279335682    1.54636554151918
H          -2.41193145336930   -0.55803080871736    1.35633638508432
H          -0.47711594008601    0.17923604155592    2.09104905885609
O           1.66593387910244    1.44241664633352   -2.64164545409442
H           0.94221804959227    0.83027604042352   -2.44260483099334
H           1.30440986854720    2.33404650296077   -2.45018422710474
H           2.36578587822748    1.04348638360936   -1.25434524107760
O          -1.21017423140857   -2.22073167222357   -0.83305617844092
H          -0.28201776199089   -2.66185448169455    0.17848227736304
H          -1.98414014929185   -1.92925518668505   -0.29452864568632
H          -0.73171331398283   -1.38624180709201   -1.04430949836305
N           0.47316271836926   -2.76462233852514    0.99858586778113
H           0.80187954649740   -1.74928929980625    1.17048517416380
H           1.25787115245503   -3.34200312619327    0.71630131573238
H           0.04242792321984   -3.13039086940041    1.84194844038389
