    26
        -50.46294290  Gyration_radius:  2.57107213553 Dipole_moment: 5.000
 S          -0.32576570132510    0.56536666806208    0.98998891073280
O          -1.56230556017473    0.88683044545571    1.87645361930690
O           0.53891123179996    1.72604658012717    0.94289391106517
O           0.32497174597164   -0.58331556485023    1.64167675783569
O          -0.82134933775428    0.19027059256845   -0.33056648698224
O           2.19156637444375   -1.51479668285383   -1.99162782818814
H           2.53746268907411   -1.01080575354697   -2.72946037456339
O          -0.68470339281028    3.88861708385612    0.04148891043452
H          -0.13446199797696    3.12740176048451    0.33015149467060
H          -0.61802109230528    4.54168227189317    0.74018489334402
O          -2.70337741151374    2.12476298761689   -0.06264247078067
H          -2.24997646420198    1.45510685195969   -0.59566285444052
H          -2.15497554348275    1.41579391143803    1.26787282065881
H          -2.13975858696871    2.92512709805465   -0.12676281822825
O           2.50488521167911   -0.00070212840801    0.19318292118251
H           2.20683952330625    0.91669586387542    0.14793341249757
H           1.92734562078779   -0.37130190755923    0.87949704330684
H           2.36766250271301   -0.97435024423890   -1.18697849676429
O          -0.40484769058500   -1.98567496093016   -1.72868267706541
H           0.53929240597212   -1.86932246004479   -1.99125983493630
H          -0.28783304944416   -2.63061137944495   -0.44410499046120
H          -0.66855262907740   -1.10687531438210   -1.37089073979613
N          -0.13742374647841   -2.90692954635622    0.63023545263781
H          -0.95485133159460   -3.36522277672790    1.01822354158584
H           0.02187820001666   -1.95550005525411    1.11795330355083
H           0.68738799992995   -3.48829334081760    0.74090256941019
