    26
        -50.46294291  Gyration_radius:  2.57087243736 Dipole_moment: 5.003
 S           1.00120762639006    0.63082045497481    0.07081235210080
O           1.98445515060251   -0.42399556815148    0.20341022416516
O           0.44042470662279    1.03169104899268    1.37176605876292
O           1.69560976212255    1.90794652376937   -0.48149492989153
O          -0.06699784212390    0.27797413642056   -0.85907459271745
O          -2.24741094890592   -2.17075378511575    1.13637231708545
H          -2.21928585666018   -3.06052365649517    0.78198162468444
O           3.21917378151325   -0.97390396353868   -2.06812538391550
H           2.77478153723939   -0.87955420142721   -1.19685698180508
H           4.15220579159316   -0.82567482505353   -1.90503927119727
O          -2.62787512466309   -0.06427745400494   -0.42873945755863
H          -1.71277087244567    0.00915992771916   -0.78534287014476
H          -2.62765887419463   -0.91496610972637    0.07150625170442
H          -2.44757421324475    0.90709699612442    0.62118110985619
O           0.23642899507630   -1.58066544374584    1.93988664416597
H           0.95837345898677   -1.75287630513412    1.32211882705599
H           0.27844221376461   -0.61646629941776    2.04247906922244
H          -1.34372049622185   -1.98799418566287    1.48368222980228
O           1.59124995454596    0.99779796558925   -2.88075272607562
H           0.76324885743684    0.60641418141873   -2.56544749532259
H           1.76755434934854    1.72934671067985   -1.46337759997692
H           2.25007745322843    0.27273126936257   -2.83087095658202
N          -2.07518368997780    1.58497642821503    1.43092952255851
H          -1.00634545739330    1.42513657467727    1.42508315265239
H          -2.45515869990141    1.31303212090240    2.33217691341914
H          -2.28325156269194    2.55752745872111    1.23173599795962
