    26
        -50.46294296  Gyration_radius:  2.57103362356 Dipole_moment: 4.998
 S           0.31834868768968    0.59998468118481    0.97196839253466
O          -0.81989546867195    0.37644470472382    0.08619005738999
O          -0.23719500184621    1.16945670861647    2.30806560200517
O           0.94900548459324   -0.68027659813587    1.33364557009193
O           1.27106841785949    1.53828154966296    0.41606940769926
O           0.58894283796777   -1.91811620789317   -2.65286884455691
H           0.63150967876380   -1.48669783590658   -3.50734501228301
O           0.24233748081323    3.94025987564102    0.01828584334582
H           0.77238507455193    4.54523076315415    0.53999902463302
H           0.69220026450695    3.06857259005539    0.07627772052952
O          -1.88938335646761    2.67672648991465    1.04585919819911
H          -1.90065437352943    1.93500794942762    0.42309091480123
H          -0.92591525161246    1.83201447918324    2.01136042907580
H          -1.27549689804878    3.33162314308617    0.65007694529038
O           2.22489691573188   -0.56642878781039   -1.02190592963258
H           1.98827493081786   -0.81470843493202   -0.11398886446536
H           1.23957504414497   -1.45059984746104   -2.07950898764895
H           2.13916681771868    0.39526608142656   -1.00035520275699
O          -1.59064467410979   -1.80286022103147   -1.14665580082477
H          -1.00467805981359   -2.48775665428055   -0.02096913043436
H          -1.46054493531381   -0.89619018610544   -0.78496669987194
H          -0.88991145735090   -1.89415811032537   -1.83549377132562
N          -0.41565245130350   -2.81609803838812    0.87265062396731
H           0.15309886005517   -1.93666733168290    1.13998680424476
H           0.21849798580139   -3.57058698203157    0.62935851808705
H          -1.01933655295718   -3.08772378012812    1.64117320191432
