    26
        -50.46294293  Gyration_radius:  2.57094148249 Dipole_moment: 5.000
 S           0.72545097032940    0.91796092220652    0.18968954970529
O           2.18944084901451    1.27408066560037    0.57489665374217
O           0.25872387890362    1.85106932277041   -0.81454759406806
O           0.72398752796360   -0.45993703617135   -0.29150271502262
O          -0.03815533902964    1.02692797119875    1.44372855526855
O          -2.98248818592907   -1.45674484914647   -0.20025067785680
H          -3.34646122148518   -1.59550683378141   -1.07564617166634
O           1.78136066282835    1.88738733330173   -2.97495449821866
H           2.09456700732762    2.78914973072413   -3.06336277880804
H           1.12819863469141    1.89941090120008   -2.24096827195407
O          -2.25220954028497    1.11454104928997   -0.06571058033672
H          -1.72063046429036    1.46594503502133   -0.79129307775253
H          -2.77430652426075   -0.49555704577291   -0.14164263436791
H          -1.64959006906986    1.19805396191825    0.69047812040837
O           3.09239165356204    0.06648580209717   -1.50406035006779
H           2.72964178439589    0.88106821866256   -0.17003261873146
H           2.33884015771795   -0.51957219320137   -1.34024911619556
H           2.79243626343620    0.67358721802254   -2.21379191105030
O          -0.66602056346531   -2.52529738631078    0.52367593102832
H          -0.62432918666387   -1.87814114981807    1.81163286834875
H          -1.56853976039505   -2.29059723277765    0.20071845725590
H          -0.07118615842443   -1.88194213365447    0.07409927222116
N          -0.56056117190610   -1.17280881836243    2.67873017557899
H          -0.29978031294066   -0.22917529638187    2.22072030763956
H           0.15894827238974   -1.45129137118374    3.33718096939697
H          -1.45972916442353   -1.08909680541360    3.14246215549088
