    26
        -50.46294290  Gyration_radius:  2.57141022819 Dipole_moment: 5.005
 S           0.32074263672615    0.76617968068466    0.84485231311428
O          -0.11649884948172    1.33496910189101    2.22441773633398
O          -0.86050818217413    0.17782277049638    0.22140567516833
O           0.88728349641393    1.83513880424609    0.04898902996599
O           1.31219477360182   -0.27654630127879    1.15680951845979
O           0.58163356777868   -2.01844205312479   -2.58104963661522
H           0.36178472905030   -1.69439770324442   -3.45558981725008
O          -0.77348070731971    3.86272384851710   -0.29247232621593
H          -0.11324763411265    3.13536914374019   -0.26854021816567
H          -0.33207802646689    4.63114009916864    0.07336412439580
O          -2.29482464184970    2.25247642431566    1.22071696496017
H          -1.94865756513997    2.98524067632545    0.66792288048299
H          -2.22681706974638    1.46346810004230    0.66312243443180
H          -0.99272999280662    1.77664549182520    2.02819989604197
O           2.07591927626109   -0.13177189654148   -1.40964260670364
H           2.07616784875752   -0.32320536207632   -0.45818074485099
H           1.18038682169063   -1.34432958211129   -2.18408261213492
H           1.75170259118657    0.77749857724227   -1.43565817702760
O          -1.25312104143612   -2.25009765044352   -0.68049236153864
H          -1.29711688947116   -1.30287495024856   -0.41457426537627
H          -0.68562011260982   -2.25144467180775   -1.48787365815548
H          -0.32175339120783   -2.64130371287451    0.34881939106191
N           0.48031673457526   -2.71436309095048    1.12633389104630
H           0.84338260062777   -1.69988469168702    1.21333867778719
H           1.23273454183190   -3.31949412347783    0.81279135093003
H           0.11220449532602   -3.03051693868899    2.01707255985620
