    26
        -50.46294291  Gyration_radius:  2.57088956079 Dipole_moment: 5.001
 S          -0.51333540441028    0.48708985773071    0.95077442099152
O          -1.35427652749598    1.48848297059802    0.32865921331108
O          -0.46883915223579   -0.75308297038225    0.18249229474513
O           0.84859425128705    0.98673246416046    1.20242030712575
O          -1.08441900845081    0.14357347256647    2.35584194022171
O           1.85286161426815    0.07425362282817   -2.75950954427632
H           1.39176830939700    0.08380260812079   -3.59940694494596
O          -3.87810360427585    0.73057182288140    0.12266349156706
H          -2.95705783373973    1.07232324462312    0.10357196821746
H          -4.39038717663972    1.38135144742649    0.60554128876712
O           1.54471144535659   -1.91059146291795   -1.02846312580475
H           1.68847215961147   -1.30020080978018   -1.79051656205544
H           2.34583429611668   -1.30276151612561    0.00477732047740
H           0.67753269591865   -1.63241725706469   -0.65350988244127
O          -2.83409435819002   -1.42847755923534    1.32512505378249
H          -1.83707482408371   -0.48462359910333    2.15546891651376
H          -3.42815692958590   -0.78082005732343    0.88928770873423
H          -2.12838777099723   -1.59359350775580    0.68258214259623
O           0.78306335301888    2.02335219844971   -1.26945404982443
H          -0.17994480757287    2.06112919439627   -1.20858475893520
H           1.04085127485742    1.84986455114767   -0.34995864945653
H           1.49352945268372    0.83290055122573   -2.24376101531527
N           2.78331405755777   -0.67071577811533    0.81888901711510
H           1.99136948299903    0.02644089964628    1.05309359086360
H           3.59604471597148   -0.16292102434816    0.48389893986440
H           3.01613028849155   -1.22166337372455    1.63807692823670
