    26
        -50.46294251  Gyration_radius:  2.57091824426 Dipole_moment: 4.994
 S           0.83231658926094    0.84540739488783    0.00962273522165
O           0.01774492524975    2.03502602973576   -0.12593616973751
O           0.33417945323566   -0.26184324659359   -0.80031775666904
O           2.27732038202554    1.15984109776454   -0.47112575573781
O           0.97740561893020    0.43151809130947    1.41509918068055
O          -2.71567331722979   -1.53306763472451    1.15072748276567
H          -3.53566269299309   -1.37495946582171    0.68101750233366
O          -0.03640614276293    2.97477842679362   -2.59536265833216
H          -0.12225675617842    2.66673837385924   -1.66617418634195
H           0.30246925865949    3.87023942147126   -2.54560923425159
O          -1.65475951331942    0.86708618101775    1.67692636797684
H          -1.60669211251862    1.50163818994687    0.95067770879293
H          -2.36570144845742   -0.64458343464143    1.39313025926296
H          -0.71827503506371    0.72444611514559    1.88853604745412
O           1.58644317635406    0.86458751971646   -2.92681229544386
H           1.02555634462719    1.65886362465462   -3.05712952973154
H           2.20831581379711    1.10928271727209   -1.46813950250064
H           0.99287342466917    0.19690135017985   -2.55275977725151
O          -0.61075103167118   -2.59178013821350   -0.06592751694363
H           0.27346965651391   -2.44942285760886    1.06368422759537
H          -1.48279398853446   -2.33399778677573    0.31753517260663
H          -0.30109027336341   -1.78200189312659   -0.53329954913730
N           0.93870338589299   -2.09979311091913    1.89384936682083
H           1.02683446445737   -1.03702593721386    1.71865753120056
H           1.85298733878220   -2.53707753692913    1.85234883785096
H           0.50344247968503   -2.26080148127518    2.79678151155049
