    26
        -50.46294272  Gyration_radius:  2.57156190245 Dipole_moment: 5.024
 S           0.08483619257903   -0.94807494223158   -0.70597667200089
O          -0.75272427780245   -1.56768707678562    0.33420261155493
O           1.06515616186389   -2.06797330730463   -1.15651761905903
O          -0.69529994063227   -0.51353767760471   -1.84606150286802
O           0.88686038026937    0.13231491431486   -0.14049261050475
O          -1.66562041993755    2.24530055320254    1.80216309357137
H          -1.80238661486532    3.11412670630875    1.42196386631829
O           0.79261446263476    0.33906780446812   -3.85741633377974
H           0.57458118590815   -0.22110682448638   -4.60425834311849
H           0.16029645720818    0.09738357408434   -3.14522137690459
O           0.76252391978991    1.26240650026961    2.21895829995178
H           0.29545647217570   -0.02608706293912    2.66731986337502
H           0.95719053842527    0.97807156305012    1.29620753457649
H          -0.07819052703657    1.77350319994027    2.14503643361144
O           2.70520029695582   -0.33149094040140   -2.09976774474533
H           1.81156424877164   -1.56393539263187   -1.59249419779928
H           2.20560034533142   -0.01106439392206   -2.88086637847047
H           2.37909078601289    0.19909438801349   -1.35798440980292
O          -2.46736013726600    0.46256466300975   -0.02633529043896
H          -2.10035470177316   -0.39597541566457    0.23824348632458
H          -2.01906715499028    1.60220079718272    1.14487972290768
H          -2.13128900235361    0.56044493710187   -0.92637769565037
N          -0.13750303482045   -1.05212759210239    2.78225406469130
H          -0.37917404212525   -1.34132322770435    1.76920394786551
H          -0.98539645113041   -1.02514458360060    3.33988598022717
H           0.53339486685090   -1.70095115358642    3.17945129019257
