    26
        -50.46294260  Gyration_radius:  2.57114742927 Dipole_moment: 4.997
 S           0.69296446668697    0.58289374491968    0.76465408886752
O           0.45859883600834    0.40790524863378   -0.66524800516338
O          -0.26182392944390    1.48697108068199    1.37126583842509
O           0.72832995847915   -0.72239049679759    1.44481649115814
O           2.12477606934202    1.16581917721803    0.93296397321657
O          -2.58420591288610   -1.92488961773142   -0.82337205940502
H          -3.35812919736938   -1.48722013929194   -1.18046070141004
O          -0.15395267635032    3.92958517454412    0.36745520370049
H          -0.30559351360808    3.04073324434622    0.75799891102916
H           0.04593739585452    4.51008634197950    1.10377080611698
O          -1.95182022748639   -0.64675551930351    1.44202069468543
H          -1.90957506531886    0.31755420248247    1.41365843710747
H          -2.39789747059148   -1.48692506517091    0.03911602566584
H          -1.03654205664919   -0.88711121845732    1.65779663430083
O           1.77997687815379    2.74316472494298   -1.06408576779857
H           1.13117163132200    3.37598767465786   -0.68860382654337
H           2.18261292910552    1.85617710108099    0.21089402032955
H           1.24756758668527    2.00617560782702   -1.39796312526012
O          -0.21905757349684   -1.73662906186783   -2.00774467673574
H          -1.15828246633311   -1.85101487169904   -1.72714453025026
H           0.02297924787879   -0.83721108956239   -1.68747559043073
H           0.49722375293342   -2.44974260356703   -0.97938564935719
N           1.00361739547984   -2.80502048545470   -0.04624150961546
H           1.97049214364414   -3.05956158433413   -0.21701998392072
H           0.49522149136084   -3.58030335282641    0.36729791767710
H           0.95541030658273   -1.94827821700395    0.61103640360045
