    26
        -50.46294301  Gyration_radius:  2.57134853885 Dipole_moment: 5.003
 S          -0.07699250670516    0.59376657591948    1.02237613707650
O          -0.58755427344033    1.92684725451142    1.63928716655162
O          -1.13823885530367   -0.38816556251748    1.30027681540593
O           0.06157501030314    0.80313577136759   -0.41534671700773
O           1.17766824295098    0.23124074433680    1.64805410382829
O           0.30114954911006   -2.75869250322265   -1.83668293884857
H           1.16222498847306   -2.95491262685868   -2.20837849806232
O           3.02758437681235    2.10469446664270    1.41525761450514
H           2.42579395953992    1.33257863663605    1.50044271651962
H           3.27391268247543    2.34633634922986    2.30971362922544
O           0.98805114405766    3.29175462827373    0.13946614032039
H           0.80878191173040    2.57826100257990   -0.49048636493175
H          -0.04651535372178    2.62454935628014    1.16835388023039
H           1.85759450906191    3.06895159171339    0.53528161133315
O          -0.99229180837285   -0.51758641195519   -2.41723754952933
H          -0.49094490488204   -1.36654790400462   -2.37535690066138
H          -2.08410062000198   -0.76191174892554   -1.50738329255676
H          -0.49993888890109    0.08650428989003   -1.81514720418429
O           0.67056896354004   -2.29619114154895    0.77347146444396
H          -0.12784370251318   -1.84844389307724    1.09595128405564
H           0.44146652541864   -2.65063493808312   -0.86753111303502
H           1.36813317002463   -1.67721043431515    1.02416068461181
N          -2.76138779487015   -0.91575070521673   -0.62931840068894
H          -3.56687849024868   -0.30027850065218   -0.66396231526796
H          -2.13925033848091   -0.66621503748058    0.21871613532772
H          -3.05256750605866   -1.88607926960674   -0.56397807859098
