    26
        -50.46294306  Gyration_radius:  2.57137063467 Dipole_moment: 5.004
 S           0.64644693650345    0.95446174693200    0.27299116437184
O           0.23270041961666    1.87354603428659   -0.76688449372001
O          -0.46138741999843    0.14364499959904    0.76829327295173
O           1.76107771398340    0.09524729090688   -0.15941650511787
O           1.20372989338814    1.76533123399511    1.47723272718172
O          -0.99097791199025   -2.46276196707228   -2.00634276449605
H          -1.82601046590449   -2.35557086142333   -2.46394059388738
O          -1.56775436864559    3.62412059294001    0.05777476315920
H          -0.94803013609245    2.98075675691691   -0.35158017739601
H          -1.18031181890720    4.48953634642643   -0.08387210976947
O          -1.17144090251607    2.24784545142516    2.32618657035477
H           0.37907027056321    2.07443825994966    1.95227968278443
H          -1.48877489382965    2.87278791571042    1.63981607726709
H          -1.34837056136952    1.36688173013224    1.96468056305856
O           0.43392746592352   -0.24397676400978   -2.46453622727760
H           1.14817572089159   -0.22766145126583   -1.80762596623347
H          -0.45343152322679   -1.66864962735093   -2.23220164337834
H          -0.00050802490992    0.60560655836424   -2.31585872222999
O          -0.83827608798204   -2.44569033765594    0.64103015145170
H          -0.88549662023085   -1.47141185276485    0.77671975584464
H          -1.02482155723444   -2.56819717683184   -0.32027943472819
H           0.60106146897588   -2.52324367351676    0.68552337585230
N           1.70667553841932   -2.35657825911552    0.62905909241806
H           1.79304265876157   -1.31892762275883    0.33858467840893
H           2.12456508969290   -2.94583121468488   -0.08421086558007
H           2.15511910599943   -2.50570412905449    1.52657764865940
