    26
        -50.45538180  Gyration_radius:  2.56579875781 Dipole_moment: 4.087
 S           0.10032788805711    0.87907159194870    0.56332518420743
O          -0.49361250815795    0.17493464914015   -0.60020096077477
O           1.50256446476001    1.13813829715563    0.34656642962141
O          -0.66419841552255    2.21384952198957    0.70119489661607
O          -0.17861738284760    0.11245235287622    1.77534376354545
O           0.70259878268784   -3.32604007690308    0.17654709627094
H           0.65320812755178   -4.00077224599270    0.85676896399376
O          -2.20556312442042   -1.46542515305127    2.07761700195459
H          -2.99488554897570   -0.93528467564210    2.20223998362639
H          -1.43965549775878   -0.83510701880924    2.11707710754119
O          -1.45048401383171   -2.06535583366229   -0.27568303951271
H          -1.86812188908002   -1.95004334568774    0.65165698552601
H          -1.05646108700180   -1.08347152285931   -0.48438624781666
H          -0.60599942265673   -2.65027373234989   -0.15028063557675
O           0.94506726327862    3.51720915632936   -0.77476360544879
H           1.60255902991823    2.89070431160964   -0.43621411955054
H           0.66924170839870    3.14180091619766   -1.64746189994948
H          -0.13041273734660    2.87420145434371    0.15099008643143
O           1.97920009232649   -1.35194473669965    1.31531789884521
H           1.28486083936899   -2.60475846271946    0.54460165168773
H           2.32432589347332   -0.62684488688214    0.77721500887767
H           1.23593454856642   -0.92713190114399    1.78004376333495
N           0.11698419231517    1.94981951706511   -2.79743209936797
H           0.80836153107547    1.54942602928075   -3.41911329902306
H          -0.71329008123953    2.14192782617261   -3.34361582964770
H          -0.12393264292655    1.23891796835265   -2.10735408543559
