    26
        -50.45538178  Gyration_radius:  2.56571552772 Dipole_moment: 4.092
 S          -0.49285250826475    0.35526147521414    0.85555542710052
O          -0.78952803838179    1.73349355071874    1.48615662221468
O           0.45331367552995    0.60109329495851   -0.26093554119799
O           0.09220126242968   -0.51897627647654    1.84237007958577
O          -1.75650196810281   -0.13299858890032    0.30844506999380
O          -0.07697671099036   -2.61283620768284   -2.17851423055913
H          -0.76344745145883   -3.12036250489361   -2.61618421383612
O          -2.62471365065947    0.39225313902416   -2.07048425214628
H          -2.44375265439129    0.18532570296627   -1.11657161151267
H          -2.93811129232252    1.29826182466774   -2.09285915438086
O          -0.17312272177540   -0.10346746860623   -2.53051607418352
H          -0.08782983125660   -1.13314485533253   -2.47341418520660
H          -1.17419288863932    0.10947286620184   -2.51524140993810
H           0.15889238538238    0.23754741416468   -1.56284163175248
O           1.09463891833145    1.58185446559794    3.18728829992440
H           0.92327437834568    0.62905178927773    3.13992380901977
H           1.85313590606820    1.72977309277306    2.56971765617927
H          -0.09956518390838    1.83484206471487    2.21923087239674
O          -0.78710807104364   -2.59726223697515    0.33528166627830
H          -0.15745726215748   -2.31292020741942    1.01145008431547
H          -1.41930125979851   -1.85636777972039    0.31887808868536
H          -0.25977593532448   -2.68649028684538   -1.20082429165878
N           2.78353149763868    1.64187579055029    1.09492709174269
H           2.03456162995542    1.25860616880436    0.51895242450243
H           3.55380009539314    0.98550588380918    1.06997822413870
H           3.09688766939960    2.50060788937384    0.66023118029682
