    26
        -50.45538179  Gyration_radius:  2.56582428493 Dipole_moment: 4.084
 S          -0.44693466770523    0.63201500323262   -0.70837453679134
O           0.73909493112496    1.16060893863346   -1.33636739536118
O          -0.20831951023954   -0.74111919818116   -0.19871245259516
O          -0.95847263811060    1.46064940832988    0.38076186948092
O          -1.58438615170837    0.51936922978681   -1.74701978542566
O           1.59427972494189    0.13745721640275    3.00500122052251
H           1.47499184081010    0.63002667328891    3.81956253571288
O          -2.27873397928674    0.55835139787253    2.41353175607912
H          -1.85782649183613    1.03618153491564    1.65197973538844
H          -3.16807977921579    0.33669165927156    2.13151805173307
O          -0.01705968983337    0.17182147009190   -3.71933639439782
H           0.25467838465850   -0.75829437492433   -3.52025060805210
H          -1.11272905598417    0.37584398497101   -2.63048411466101
H           0.59134186451991    0.72024073294651   -3.20116427924271
O          -0.42647870690767   -1.17248483727353    2.21091770744890
H          -1.21798467582965   -0.56225970722263    2.43228467098935
H          -0.32348625283548   -1.05336303384973    1.14404593276438
H           0.41813056310705   -0.71366213760600    2.59442709447970
O           1.53054327713039    1.95994675043566    1.13435876561331
H           1.81908793287687    1.74305007513414    0.23769680434361
H           0.56617677080151    2.04367321727293    1.02534636178712
H           1.68951394946013    0.81806978360782    2.28236875337658
N           0.68301889745071   -2.15129346508483   -2.55877402108465
H           1.66478984836222   -2.39122558169822   -2.50140937936232
H           0.16274320141289   -3.01102240028533   -2.68012020564902
H           0.41210041290037   -1.74927235993820   -1.66178806698208
