    26
        -50.46184985  Gyration_radius:  2.40119604556 Dipole_moment: 4.335
 S          -1.27712077757711   -0.42257018010626    1.22701803298618
O          -0.10348635328495   -1.29178162715096    1.23829327678507
O          -0.90344273098900    0.95090484670402    1.53842649363987
O          -2.04538023524040   -0.53176128500983    0.01160972498143
O          -2.20123974423182   -0.91880604186331    2.40516184916782
H          -1.62239014336241   -0.82634604881171    3.15364786958994
O           1.87203724545540   -0.10016618691257   -0.05629813601585
H           1.20453046404883   -0.57542997779106    0.48718811785952
H           1.98908309692551    0.77580067194652    0.40252965237872
O           0.63347591758725   -3.06094276588855   -0.64309910306628
H           1.57334329351878   -2.87548258318082   -0.70487896307936
H           0.31750474301127   -2.57424406238385    0.14255314336922
O           0.52823437108880    0.49719864281078   -2.07177775805458
H          -0.12201616534134    1.17654474424091   -1.67356657731986
H           1.18600259198045    0.24298740370281   -1.27327035076295
O          -1.20652637594050    1.94753951957385   -0.86487723150398
H          -1.09347134292508    1.67773974882099    0.07644583761136
H          -2.05114995428566    1.56347803146413   -1.11921855578740
O          -0.91814149312476   -1.52474733156900   -2.15649410314061
H          -1.50983228959581   -1.25455151616406   -1.41965287161246
H          -0.06619185333066   -0.38349439585808   -2.23178596325394
H          -0.37092824878640   -2.25163165744609   -1.77785771134569
N           1.67186906235466    2.23642914289720    1.19310240854693
H           2.22047226169515    2.52309936678632    1.99336842310085
H           0.75083960496127    1.95504306312540    1.52573148152611
H           1.54392506538315    3.04519047805873    0.59770101339098
