    26
        -50.46049358  Gyration_radius:  2.43406381388 Dipole_moment: 2.663
 S           0.47789883068265    1.01849622015401    1.48082843611025
O          -0.91962051275092    0.77573148202771    1.15468722887812
O           0.85659493628279    0.53940998869321    2.78710792413442
O           1.35702821768391    0.59244069360107    0.40665975158902
O           0.63668443662673    2.60864985134586    1.56487310668057
H           0.77898359432459    2.74273596147870    2.49642549403108
O           1.35929216892188   -1.19399757611645   -1.49513260649909
H           1.38266546288122   -0.52753958897678   -0.76628675795936
H           2.27400557454316   -1.37997283106596   -1.71056656256486
O          -0.44641147871585   -2.70336928866447   -0.13510322936187
H          -0.15425580351945   -2.55157146162705    0.79123143974725
H           0.28865750326212   -2.38845739552007   -0.69394634422930
O          -0.81651904830453    0.10903287042149   -2.57496812289290
H          -0.60664109440101    1.02689767524318   -2.23956681343806
H           0.00925336479341   -0.39491570813505   -2.47517196576948
O           0.30373805427845   -1.99286410064596    2.32151598628587
H           0.58576200908792   -1.07090521165204    2.49668636205724
H          -0.28255488776450   -2.22841901286436    3.04331156205701
O          -1.98014737916595   -0.76652114274810   -0.54649545557657
H          -1.62844398681572   -0.12209708538689    0.16045296426384
H          -1.59374663446296   -0.39965149464876   -1.47162761224819
H          -1.44538780310368   -1.65951913726740   -0.37258542397269
N          -0.18893732343679    2.32447023930936   -1.26875800295916
H          -0.96076449173048    2.57107709831794   -0.66074892870533
H           0.20776110815579    3.18549430441653   -1.62387912553039
H           0.50510520264680    1.88536468032887   -0.66894329413347
