    26
        -50.46049360  Gyration_radius:  2.43404202966 Dipole_moment: 2.664
 S          -0.24750510399206   -0.49899527497394    1.77441484963673
O          -1.29115231369437   -0.70768360859233    0.78163997766407
O           0.19399796301488   -1.71515908102528    2.41108995883169
O           0.82495036885956    0.32962148775181    1.25330116568713
O          -0.92420994380499    0.35549592805575    2.94608671977365
H          -0.95807736229433   -0.27752900092326    3.65610170416962
O           1.04365932741799   -2.88419505909349    0.20967505688113
H           0.80308593774744   -2.44391528976885    1.05140438098265
H           0.58892688639427   -3.72878878764618    0.21725699674304
O           0.99766527770345   -1.50151908192697   -2.06808016821996
H           1.52239341572694   -0.70620729826477   -1.85846611100423
H           1.08194557276231   -2.08519725968004   -1.28146676361965
O          -0.50703029441705    1.91644621779337   -1.83813866964700
H          -0.82381283034878    2.20953157325950   -0.93661964456626
H           0.44612835083567    1.75368308815288   -1.73400356189745
O           1.91317647542990    0.85098364726538   -1.06012897057310
H           1.52610691969327    0.64676519338151   -0.17445965736152
H           2.81208407315121    1.13761110281207   -0.89427897214942
O          -1.25710179550660   -0.46307844889568   -1.73556896618141
H          -1.34934496005935   -0.58401046152425   -0.72777998864895
H          -1.02235390663676    0.56974677354266   -1.86962334568021
H          -0.36377110491392   -0.97036339308456   -1.97702014696439
N          -1.21575243583492    2.25705810048321    0.68972602980356
H          -0.45603159384583    1.70148434099917    1.07502567555802
H          -2.06026633980930    1.72517699432084    0.86324375731434
H          -1.27771058357972    3.11303756757802    1.22666869346965
