    26
        -50.46009920  Gyration_radius:  2.46606116122 Dipole_moment: 0.827
 S           0.73735648714161    0.82210207832628    0.74178628262460
O           0.82307872314029    0.87766862628836   -0.71370504325964
O          -0.52132295184650    1.37025237092198    1.22178008894911
O           0.93987924354778   -0.54700927880458    1.21694813253258
O           1.90590967724016    1.65935191227188    1.33093274557680
H           1.69751152784938    2.55388982600066    0.95828458069829
O          -0.81845235117592   -2.48049556477103    1.26454039782431
H          -0.23135121039358   -1.70068220286287    1.41470458401098
H          -0.21824745086199   -3.21159200864020    1.09041182628129
O           0.22695474490501   -1.24879622612883   -2.05418648556701
H           0.45669172295772   -0.36101974142305   -1.66657428059695
H           0.84944773455282   -1.86572799459854   -1.60732626121672
O           1.84168032388779   -2.48122848578603   -0.32014909919687
H           1.60774204330104   -1.74817378342095    0.29670551044636
H           2.78983796215936   -2.42925547755884   -0.44610988503586
O          -2.59978807622595    0.61988011539952   -0.08608049462058
H          -3.29154358121673    0.60872340002646    0.57884966156417
H          -1.78275407198509    0.95393474370681    0.38170654262337
O          -1.90935070646699   -1.68969120145917   -0.89537268221586
H          -2.25821101802322   -0.75767123785375   -0.64364737777957
H          -1.00381815246018   -1.51526464524000   -1.50099811193369
H          -1.55631195577454   -2.09046992422681   -0.01810022174987
N           0.78758458723603    3.61376029251845    0.02411508358495
H           0.86754548076809    4.56052113455893   -0.32571584541337
H          -0.09237649598846    3.51708159695065    0.51726149643519
H           0.75230776377909    2.96991168580739   -0.76006115459203
