    26
        -50.47460558  Gyration_radius:  2.38424594837 Dipole_moment: 3.138
 S           0.71002453903725    0.79217837463546    0.92433872760909
O           1.62236192653230   -0.10053890552257    0.21245549678713
O          -0.66460594726608    0.27065241629748    0.85795356609632
O           1.12331850119423    0.81959438756531    2.41451431003433
O           0.78210236571705    2.14856102557109    0.41792703384057
H           0.22165725788637    2.23505761266407   -1.03906422469791
O          -2.50690304467478    1.62815557562920   -0.49209304620415
H          -2.86794300712519    2.29607210648042    0.09271375163713
H          -1.91534098096601    1.07331551140993    0.06282109785258
O           1.27933335369385   -2.61622815347002    0.80502104421585
H           1.47893367501097   -1.68139659108525    0.54915913795164
H           2.11681143410181   -3.08146838947013    0.80194339028698
O           0.73728495938596   -0.31985236183576   -2.30311250916731
H           0.05185759857479   -0.97623026725814   -2.03769418768654
H           1.29186285258705   -0.24731902004179   -1.50093851403204
O          -0.90019783093756   -1.83248527263632   -0.85528325776783
H          -0.30971260197103   -2.46893505878686   -0.43263056141483
H          -0.96013313063269   -1.09025276374407   -0.22762882943871
O          -0.04236865449828   -1.44422362333791    2.86354916882844
H          -0.74228149703950   -1.07359940695187    2.30870006334168
H           0.42655912233767   -2.08093941643356    2.29032241759762
H           0.77439021718372   -0.04245733196292    2.76892941958128
N          -0.30468692458755    2.03011981665822   -1.93906286156837
H          -0.17003225634467    2.75166045748861   -2.63842715275491
H          -1.30274042901436    1.94007075048799   -1.64423550302146
H           0.07044848180747    1.07048851766790   -2.26017796790425
