    26
        -50.45882329  Gyration_radius:  2.49445486064 Dipole_moment: 4.330
 S          -1.08713393813652   -0.35704187668630    1.80061294205905
O          -0.33867304191571    0.58734713025275    2.60552641809624
O          -1.64061883364023    0.27710656464243    0.61153162791433
O          -0.35878143332564   -1.57209386222676    1.49461935519873
O          -2.32770770017313   -0.80970284760467    2.67301525506592
H          -2.71869034552813    0.03260756880355    2.87562547925444
O           1.52397894243977    1.72833156749259    1.22028934900171
H           2.17930266684014    1.99272433732646    1.86861053110935
H           0.77322429236701    1.34672020695477    1.74660424225823
O          -1.12257835613635   -2.96309230844061   -0.61711217481207
H          -0.93794001211085   -2.44918645349729    0.19965556149504
H          -0.90975491252341   -3.87397654992139   -0.40826119327747
O           0.42660633626868   -1.40146678970396   -2.10910490131240
H          -0.15399166298689   -2.09772931793581   -1.72239544532893
H           1.08902074673290   -1.21035821231668   -1.40058726309988
O           1.77931825090492   -0.77898704768382    0.07863092834972
H           1.11864744977628   -1.17811444956721    0.67436126491786
H           1.85913746029660    0.14090507734499    0.37750525446338
O          -0.98954163698021    0.61137573537494   -1.80434051000174
H          -0.40976350991014   -0.26855880226352   -2.03059481495445
H          -1.33506172424823    0.45498814739874   -0.86279059126889
H          -0.28933241636809    1.39546064315439   -1.70808425933976
N           0.77379991596654    2.42906761602514   -1.46146324908068
H           0.46090762720966    3.38358707370426   -1.57970365326753
H           1.59382038319324    2.28386925239626   -2.03661124649829
H           1.04180544198513    2.29621755697777   -0.48553890693988
