    26
        -50.45882329  Gyration_radius:  2.49445762722 Dipole_moment: 4.330
 S           0.18739042236961   -1.87880437787133    0.99328131795580
O          -0.93580849289485   -1.49819751265401    0.14712485323356
O           1.31176695204180   -2.34225022364379    0.20527194110187
O           0.53090024900410   -0.85164753294459    1.95631264053432
O          -0.30682492711623   -3.11716825450759    1.84608060906474
H          -0.45905000104030   -3.75609174343612    1.15902147891449
O           1.43518625883862    1.21265301877765    0.49808338456029
H           1.24291689680969    0.50291435268853    1.13838621326035
H           1.72086025530281    0.75050110448518   -0.30609492673868
O          -0.98343719193412    2.26927284472550    0.69128870414067
H          -0.02097213801083    2.06046311144406    0.60544002075259
H          -1.25034109700321    1.85500674360446    1.54484689570952
O           2.03034152395692   -0.56798538129178   -1.53422891959336
H           1.72528549364723   -1.28304730841249   -0.91625128913833
H           2.95464688003730   -0.75806845911892   -1.70511883505117
O          -1.40691563298285    0.72576408599565    2.81330785756153
H          -1.15470167253467    0.97197848082603    3.70459334806823
H          -0.74728594248809    0.05881064120964    2.52115395804889
O          -1.84086507402471    0.59851493920483   -0.92836881607924
H          -1.56284829838649   -0.26387206109986   -0.47081531068272
H          -1.55306480431344    1.37625144956604   -0.23995784726597
H          -1.18564980942952    0.69097282863966   -1.75086085292160
N          -0.13822501056785    0.80386739112723   -2.82304552391949
H           0.65267138813134    0.26412527431642   -2.46939496020621
H           0.16845916892043    1.75804159556450   -2.96380944388797
H          -0.41443541633427    0.41799498280306   -3.71624648742294
