    26
        -50.47460556  Gyration_radius:  2.38424079834 Dipole_moment: 3.140
 S           1.38775824206135    0.23555609001758   -0.06897198698895
O           0.97051902380831   -0.67037867171803   -1.13725058709719
O           0.39962989236183    0.22280639512552    1.02169060494790
O           2.72454924864075   -0.28239740211751    0.51128956845384
O           1.60839407452959    1.58092194772663   -0.56181125127392
H           0.26585411503633    2.23946988463003   -1.01817465219530
O           0.19338416960797   -3.00321213276523   -0.27030938199626
H           0.44013022789822   -3.69256297177977   -0.88820873806171
H           0.49365678483615   -2.14964965682582   -0.67091431280612
O          -1.45622145316360    0.10625123387196   -1.95468929423401
H          -0.53788581492208   -0.22667533080096   -1.90893007376201
H          -1.89026521626505   -0.34094629186996   -1.19135169651388
O          -1.86513753873821   -1.13568458613596    0.35963016723174
H          -1.12389532346562   -0.61657726423933    0.71958875857157
H          -1.50255495257393   -2.01841771711677    0.21238022376206
O          -1.01458416096327    2.41643102355589    1.51955317653528
H          -0.49410404915110    2.97764512167782    2.09632886815043
H          -0.51934984080552    1.57087219120251    1.44519219396417
O           1.51085052331221   -2.08284781654699    1.91500651048531
H           1.06923087262485   -2.65302244563275    1.25641718560332
H           2.44877537010581   -1.04898027834318    1.08298324325847
H           0.88264146487741   -1.36937123809772    2.09233752989613
N          -0.76488489430749    2.47037410059755   -1.13362787146378
H          -1.20180288029578    1.56875428162046   -1.53457362326598
H          -0.91622878586854    3.27337139703434   -1.73374871784885
H          -1.10845906917393    2.62827013694463   -0.15983582334261
