    26
        -50.45852418  Gyration_radius:  2.50873461259 Dipole_moment: 1.946
 S           1.09449571628568    0.53399038746912    0.72834264462637
O           1.85104093007968   -0.05635253795608   -0.36745237158911
O           0.07786696615164    1.46273790718981    0.20735272872126
O           0.48271484237604   -0.48264787889816    1.57017008005898
O           2.05326851149623    1.35591093976522    1.62102960571317
H           2.43715435739307    1.99608783651848    0.95909233231205
O          -0.07890538128223   -2.84743894711204    0.52841818426514
H           0.62537781997889   -3.48115541953328    0.67251719952597
H           0.21184682779260   -2.01343391203598    0.96275331525727
O          -2.10163123672510   -1.12796192910973    1.85515131169341
H          -1.93875176542936   -2.05721290285556    1.66258914389031
H          -1.21201431601233   -0.72416076291387    1.89216907077761
O           0.16792634279157   -1.48092785066283   -1.78121505566472
H           0.93923437855605   -1.00638403786291   -1.38860534139755
H          -0.07855571350877   -2.13815362332097   -1.09743633939616
O          -3.35888384207165   -0.10665209544487   -0.19338770694652
H          -2.93645481367949   -0.52213167975576    0.60947487812050
H          -3.82952132763188    0.66643296535012    0.12282550742091
O          -1.33070660671134    0.51000098839395   -1.59201554961612
H          -0.74065485870874    0.99305793590524   -0.85937382830892
H          -0.78396222236929   -0.37451832282394   -1.78612181674808
H          -2.19880126429490    0.24621574005784   -1.10368363573925
N           2.69054612174249    2.64505839966397   -0.54410282727299
H           3.47390381799730    3.15681824130518   -0.92948626089089
H           1.83400181296323    3.12963707403261   -0.78004874426963
H           2.64946488282574    1.72318349462453   -0.96895654454453
