    26
        -50.47460553  Gyration_radius:  2.38431961392 Dipole_moment: 3.137
 S           0.46721263558630   -0.45453394711245    1.24921487182271
O           0.48565635354364   -1.00198605015424   -0.11676788299506
O          -0.68890051226037    0.42217637244902    1.42491592048636
O           0.32386274636494   -1.64679271377062    2.22394333248581
O           1.70896714915778    0.22635127772453    1.55897522187496
H           2.01064003410435    1.34837663623786    0.51280036351020
O          -1.36607121694054    0.16922755206426   -1.73330640994074
H          -0.66082300683115   -0.32059315819077   -1.27377106322506
H          -2.17944492744725   -0.07569716487140   -1.27421472689513
O           2.43867894752225   -0.29454472050372   -1.77392544447898
H           1.69956361557357   -0.64900272015331   -1.23198244054163
H           3.18573383401077   -0.87281833084850   -1.61270096911342
O          -0.54098462854246    2.33816779780600   -0.43705781209213
H          -0.90375574782844    1.73703586492208   -1.12853334469687
H          -0.68570848258266    1.83363831417759    0.38805390047932
O          -2.91252002183003   -0.60537800705018    0.53255103035619
H          -3.65066082493674   -0.34634522093547    1.08580003629394
H          -2.11222851691762   -0.16255045762317    0.91033038159239
O          -1.36270397652181   -2.82740532788950    0.65975527736680
H          -0.35547602928301   -2.22627118109952    1.78436111721537
H          -2.11939881511967   -2.21227709109416    0.60435191955868
H          -0.75499125765790   -2.54323954111167   -0.03667877208500
N           2.02291668139321    1.93486931586205   -0.37315156633675
H           0.99623209230805    2.23695473157354   -0.51292643283349
H           2.30131311528227    1.26643216984804   -1.12599522803588
H           2.65289076985529    2.72620560977121   -0.30404128977168
