    26
        -50.45363109  Gyration_radius:  2.49780493571 Dipole_moment: 2.037
 S          -0.38127244990351    1.78671862573847    0.13085539006915
O          -1.30440622722435    1.61637733523766   -0.99094614996029
O          -0.70714603893965    0.85508357546337    1.20141759324975
O           1.00824947895185    1.74013654138155   -0.25387362987552
O          -0.65448247461647    3.23564832876893    0.69112174645081
H          -1.60058055889197    3.21984712423982    0.78418386823358
O           0.97857502944846   -1.25280150780670    1.14837482516650
H           1.84682387401346   -0.90686373431121    1.43926559393305
H           0.38487145281094   -0.48840810761375    1.27403116014806
O           1.37146810728634   -0.63808024357726   -1.37078425666794
H           1.25127295899500   -1.10405836311952   -0.49988112292352
H           1.46499151706343    0.30053538570938   -1.10654617086363
O          -2.43496191161599   -2.03448421965225   -1.42085860149645
H          -3.36171317985238   -1.86335620483808   -1.59558519143170
H          -2.29949805014398   -1.88677906360803   -0.44427337271738
O          -2.00177617618506   -1.49143348110246    1.09852798518826
H          -1.25200685911949   -2.01682445450455    1.39661999358561
H          -1.69775938363956   -0.56520364441638    1.16779343917227
O          -0.83698161327160   -0.35249648090455   -2.45754856685472
H          -1.07644497166826    0.51080355512250   -1.94029624624176
H           0.14598733619439   -0.58257547088405   -2.08194957085034
H          -1.47894707009486   -1.07811237262481   -2.11188605561320
N           3.03861121982543    0.50093191427112    1.52264824714763
H           2.45720586080482    1.12469781567752    0.96522978888647
H           3.92759356849267    0.41117202185705    1.04590269553920
H           3.21232655127280    0.95952511549792    2.40845658871641
