    26
        -50.46186371  Gyration_radius:  2.40787617784 Dipole_moment: 4.159
 S           0.32048183188291    0.88955738420406    1.49163190781699
O          -0.34681978270398   -0.28655895353166    2.03443006179848
O           1.58467189012444    0.52845646823102    0.85514370428663
O          -0.51527081613702    1.69879399951917    0.64319283649603
O           0.70434028988619    1.78552845075019    2.73828295245586
H           1.17450838219962    1.15661165944108    3.27360275807404
O          -0.09398038105878   -2.76484091379599    1.11467489444411
H           0.35655529737836   -3.33904685121522    1.73496523648503
H          -0.14854811025819   -1.87940248365928    1.53830257327811
O           1.26704691516313   -1.49308433268108   -0.84632764655758
H           0.75168422411092   -2.13177354040172   -0.31946401585240
H           1.52063962829866   -0.79059797461871   -0.21112490513598
O           0.08050818904703    0.03358229385607   -2.49011833638254
H           0.64060226876057    0.92737384014392   -2.17795312309925
H           0.52451458481496   -0.70094132005591   -1.93181744861934
O          -2.50826250013444   -1.23095075269706    0.63463053171992
H          -1.91535806784085   -0.77129486792831    1.25431832878013
H          -2.13154187646265   -2.11118913218445    0.53565052583085
O          -2.02095778306172    0.59151586525629   -1.24199069330117
H          -0.86226967394032    0.19974514391936   -2.06645952633907
H          -2.38974487618354   -0.14892964857020   -0.71217003698791
H          -1.59145791463985    1.15969195460345   -0.56944295291905
N           1.29983376709302    1.99384243127267   -1.49286152134510
H           1.57041755158323    1.55308092648805   -0.60726885118638
H           0.61883355840851    2.70730183044168   -1.26119450216266
H           2.10957341367003    2.42352852321394   -1.92063273157585
