    26
        -50.45780563  Gyration_radius:  2.41884763891 Dipole_moment: 3.173
 S           1.17976498176474    1.34407728687122    0.07837389097615
O          -0.08071999866681    2.05524488601053   -0.01670795375602
O           1.46301001854710    0.91365598982076    1.44157360006023
O           1.28088570911360    0.25686218806096   -0.87657473894613
O           2.32526146116167    2.36241089879104   -0.29499231464500
H           2.34934492887821    2.90958818365776    0.48238678054991
O           2.39218202645740   -1.98158419417864   -0.00997518430495
H           2.09346838423497   -1.09627272598017   -0.30771481030691
H           2.79854004690580   -2.39920007081371   -0.77107240680353
O          -1.88174290290789    0.48374301483399    1.12690499758807
H          -1.34165653914421    1.23665699140701    0.80419496225865
H          -1.86393964523587   -0.14779739871518    0.37314789833320
O           0.01386244947468   -2.63773758339041    0.96321524981658
H           0.94745888296196   -2.56455008652398    0.65356499683277
H          -0.53217094364951   -2.33061701011978    0.22101920163750
O          -1.08885821088337   -0.98975921110805   -0.96613374821693
H          -0.19377335209188   -0.59780039635791   -1.00769752613499
H          -1.59097765796490   -0.44167363087154   -1.60465146645519
O          -0.16203400277062   -0.67631373309904    2.51559326495831
H          -0.99919255045618   -0.19693761246265    2.08945518889046
H          -0.07318429389950   -1.57736116953478    1.96370472600691
H           0.60053559826575   -0.07060303349520    2.19639012758109
N          -1.92001423811685    1.26072219283365   -2.22284452911289
H          -1.27906860642997    1.71648998256766   -1.57455078654790
H          -2.82991586260157    1.68733808891892   -2.09640979677903
H          -1.60706569295104    1.48141814286977   -3.16019963347695
