    26
        -50.45780573  Gyration_radius:  2.41862447801 Dipole_moment: 3.165
 S          -0.03304532673590    1.07401037404319    1.43067457135844
O           0.46834181757812    1.96306189780739    0.40032050025055
O          -1.48487932842818    0.95418751059683    1.39066048909814
O           0.62825043964453   -0.21722700041605    1.42412548082864
O           0.30306253243281    1.73074938378222    2.82519939602450
H          -0.33173047803602    2.43812700138265    2.85590391271385
O           0.93519718379276   -0.97505346083886   -1.12709712086189
H           0.87350324186907   -0.78237194839460   -0.17020994330166
H           1.76603166661414   -0.52223022070349   -1.38174438573280
O          -0.58864976590291    1.09990542719279   -1.87166599470721
H          -0.23150261736473    1.63142943205977   -1.12840971861753
H          -0.00564854241660    0.30790729599949   -1.88481016637085
O          -1.48257016588360   -2.26407644048845   -0.75052949477997
H          -0.59625100027151   -2.05543603649399   -1.08861112715371
H          -1.36291260834922   -2.44850853626086    0.21100819657042
O          -0.90227571283753   -2.33451010446045    1.83625999332106
H          -0.36891961175672   -1.51229736870028    1.80140909524570
H          -0.34689963183677   -2.99899571000797    2.24708402490171
O          -2.51417102441396    0.02061507723827   -0.70503074342527
H          -2.19524933132246   -0.99048067429388   -0.74334863477278
H          -2.23793234245280    0.37147562801175    0.21723382715457
H          -1.83415235546529    0.52728283792202   -1.33135212265022
N           2.78993848111501    0.99696198374501   -1.19706171345388
H           2.95733597936109    1.60789868066705   -1.98742103898333
H           3.66282346308492    0.90503925102254   -0.69213635760927
H           2.13230503797682    1.47253571958911   -0.58045090504996
