    26
        -50.45780587  Gyration_radius:  2.41864687285 Dipole_moment: 3.163
 S           0.37452919235953   -1.67622470164971   -0.50156238890731
O           1.68918961505264   -1.16068173415590   -0.17091424546542
O          -0.35580323047227   -2.11141536708033    0.68205463194370
O          -0.39568295329365   -0.75847952191420   -1.31943248180176
O           0.58254471009845   -2.97279345806650   -1.37596662093632
H           0.87282091824491   -3.59615491481983   -0.71908431675461
O           0.00188795868666    1.71803307337972   -0.37813239482614
H          -0.19890172218764    0.85630431004450   -0.79489762304391
H           0.83357352712129    1.98110669025876   -0.82447309961870
O           1.29684885557236    0.65920540960550    1.71528370559460
H           0.90601295147818    1.29322439490015    1.07296774120991
H           1.63642248069582   -0.06179031539983    1.14311585051558
O          -2.96717380937366   -0.53023579245373   -0.74395658404940
H          -2.03928885284489   -0.73772735010083   -0.98406767052886
H          -3.41186899028098   -0.29841309635358   -1.56084071366310
O          -2.26748544096330    1.21898638444235    1.12241754814982
H          -1.58404427313991    1.69394551870412    0.62175987047420
H          -2.70088542435498    0.61602764459570    0.47318049333980
O          -0.85462451387755   -0.38143572500901    2.43738512845654
H          -0.76248827659154   -1.17571819464645    1.79651035786125
H           0.08336231502361    0.08634696678379    2.32344752473167
H          -1.53479167888848    0.29044063709575    1.97808684361724
N           2.47962913186253    1.42044793088158   -1.43034734255439
H           3.33182229948854    1.77332411184530   -1.01194442170755
H           2.61927521453035    1.39654740223472   -2.43290778814647
H           2.36512000605425    0.45712966688208   -1.11768202389172
