    26
        -50.45760675  Gyration_radius:  2.49520118616 Dipole_moment: 2.750
 S           1.17751892001205    0.74197816715454   -0.29102972198057
O          -0.11062012438107    1.38165058904780   -0.61094712973844
O           1.30839888645186    0.54790941391426    1.14018075464951
O           1.32979163037482   -0.50273118261793   -1.03473739875049
O           2.29565916697967    1.69598121751389   -0.78048215622078
H           2.12984290157948    2.49768533823220   -0.21396363948655
O           0.81288332729908   -2.85290412283641    0.08254659709522
H           1.59645550743986   -3.31114680921050    0.38890317736947
H           1.12315331447500   -1.99673906967056   -0.28590650513985
O          -0.52364539271318   -1.24577277364024    1.84747133241528
H          -0.15176346546491   -2.00972038631039    1.37189700259231
H           0.12875542208675   -0.52808790245374    1.70525606887751
O          -0.53252245279216   -1.85476230000659   -2.33380244794294
H          -0.53006689665597   -2.61015222989468   -1.73386814034179
H           0.27580860837215   -1.35106073849925   -2.09720909071285
O          -2.81746837440635   -0.76982214794634    0.76142056240164
H          -3.24480736601400   -0.09866426805667    1.29561598479682
H          -1.95367493959224   -0.99111897665134    1.22748886293196
O          -1.99049245515622    0.03803999749164   -1.48145590621883
H          -1.19481361954587    0.66909118295487   -1.16281153645058
H          -1.51564114925972   -0.76869462871936   -1.91481701033112
H          -2.41468083750794   -0.30177434878291   -0.59650743191674
N           1.37596001782252    3.36965558344260    0.98438685319202
H           1.28344130903440    2.52896527690003    1.54772336811457
H           0.46015672652882    3.58756768345775    0.61273513762411
H           1.68237132501633    4.13462742518866    1.57191240317496
