    26
        -50.46067661  Gyration_radius:  2.43702879754 Dipole_moment: 5.100
 S          -0.25045296158547    0.16149795874201   -1.91387886027313
O           1.16640235147060    0.32352191175092   -2.16612876276260
O          -0.65413343740125   -1.22573538570105   -1.78527226799568
O          -0.71608449334805    0.97364425380786   -0.80126883784402
O          -1.00202268867463    0.74028817521595   -3.18831111114790
H          -0.59427988435633    0.26265670642344   -3.90324512645372
O          -0.72861143394004    2.56221240221462    1.33476813679406
H           0.22676352977541    2.46197466014025    1.44299213516261
H          -0.88298697551541    2.32192687203087    0.40458975192231
O           1.62947316590620    1.28868293986456    0.43297065176616
H           2.35864596693494    1.31396021029506   -0.19155634373263
H           0.83926963415606    1.13960216275572   -0.12494896276387
O           1.97975194631410   -2.05147611974590   -1.27342677307132
H           1.85293295641814   -1.16619292857094   -1.66585136448999
H           1.16090693205760   -2.51345000645707   -1.47822024219129
O           1.57329624071426   -1.32649884547057    1.28398765633469
H           1.90611054143868   -1.72113510215875    0.44911994477365
H           1.69541897999670   -0.36679368430591    1.17072080186391
O          -0.96296727058893   -1.62462090156454    0.79108671790340
H          -1.50876404941940   -0.52430044027953    1.45532885330372
H          -0.95554670244406   -1.49383725534776   -0.18623427023897
H           0.00276783310675   -1.61432273183960    1.05961602576173
N          -1.94364754226743    0.32334967678703    2.08422716393881
H          -1.43569011034462    1.22610239158399    1.84218784669372
H          -1.82906296071930    0.10310879568742    3.06836204417778
H          -2.92748955769497    0.42583431413284    1.85838520257643
