    26
        -50.46067661  Gyration_radius:  2.43701098257 Dipole_moment: 5.103
 S          -1.90116537675200    0.08627156380136    0.35965330236550
O          -1.50399530388233   -0.57095888956166    1.59019398305467
O          -1.89822502124449    1.53123280724217    0.45670651425582
O          -1.15075531675106   -0.39780519872465   -0.78792003667862
O          -3.40493270316831   -0.34173112094245    0.07775580383937
H          -3.87605784281483    0.07764560404531    0.79027624857828
O           1.86909851423463    1.09313701962958    1.09353255688643
H           1.53987565528062    1.39889372159992    0.22930416998945
H           1.24749807062292    1.47825350620445    1.74834059909751
O          -0.28191522470217    1.76222458062395    2.56215663908328
H          -0.52042161842647    0.91734782822704    2.95603067252824
H          -0.90569513710008    1.85680758804638    1.81664965820058
O           0.40392661095359    1.74291901475479   -1.14204144346373
H          -0.04734414139697    2.55435979635354   -0.89654206232755
H          -0.24337674432689    1.03677038016665   -0.94140779441653
O           0.45923307204575   -0.46526620063981   -2.90694374890036
H           0.77821253715229    0.42821636647866   -2.72137362893881
H          -0.38968983064038   -0.51133806532462   -2.43368340512394
O           0.97316403654691   -1.34631941466569    1.19670148487592
H           0.01692868761580   -1.16231715344269    1.35176262666478
H           1.20934253676760   -1.78721891438629   -0.10700632235424
H           1.41726881444403   -0.44833052613073    1.23243729507113
N           1.49884607641683   -2.15963971782715   -1.14654362145603
H           1.14021431749324   -1.46840914787685   -1.87112509714413
H           1.06123465378948   -3.06142118209987   -1.30368444388531
H           2.50873065785113   -2.24332424555064   -1.20322993980014
