    26
        -50.46220850  Gyration_radius:  2.42262597303 Dipole_moment: 2.966
 S          -0.06911797662181    0.69718873639897    1.04118988765989
O           0.58234476943292   -0.55149678401712    1.41163820254898
O           0.50813863968236    1.22018225324286   -0.20570408585531
O          -1.51148239122560    0.53875320389022    0.91235008950054
O           0.17922658666665    1.74415247622508    2.14972006430352
H           1.17090186612578    1.70379746992588    2.27654067323890
O           1.86999997163306   -1.14600177557363   -0.81959403075813
H           1.44327492737373   -1.04987177212864    0.05955222319596
H           2.02102458124117   -0.24043537604270   -1.10710368886175
O          -1.61113996156718   -2.01245286618246    0.21159017237555
H          -1.65884018168590   -1.09317518396163    0.54753947305075
H          -0.98682666760023   -2.44744862993990    0.79771151740682
O          -0.36728457937569   -1.69988483401641   -2.10347590779434
H           0.55946146963167   -1.67090107190603   -1.75344245271459
H          -0.92152911968276   -1.95211295296139   -1.32271259045763
O          -3.11598101103320    0.84147123534739   -1.14440612705888
H          -2.66284603908653    0.87577361644675   -0.27275473040437
H          -3.60066908781965    0.01219844901235   -1.15659024734522
O          -0.82243771036580    0.72616599159619   -2.27416539096024
H          -0.25482208349687    1.03285413478572   -1.46370701040976
H          -0.64105235305737   -0.36032532032902   -2.31076067553398
H          -1.78949200303420    0.84044636272876   -1.97315791221228
N           2.71716628273713    1.15532941733894    2.17681118817125
H           2.39107674171033    0.20951047373559    2.00018436780319
H           3.35420973026398    1.14453593106087    2.96251695946916
H           3.21669560916041    1.48174680531628    1.36023001162219
