    26
        -50.46185101  Gyration_radius:  2.40092318469 Dipole_moment: 4.296
 S          -0.02819826406120    1.64848050791481    0.77384739889458
O           1.37958439814589    1.27443310628084    0.74595525275095
O          -0.60351140579310    1.59413908619039   -0.56762790705171
O          -0.78688812801305    0.89637528791980    1.74240037638588
O          -0.08846204747110    3.16252926579745    1.21275125389035
H           0.38724544276161    3.58496837567522    0.50625728234032
O           1.14343486029824   -1.07327535355873    1.88187449888763
H           0.55979405857377   -0.86614723426160    2.61806774852540
H           1.34076936852096   -0.19631893998756    1.47696983491872
O           0.18348139648030   -0.63703757129804   -1.75314496256158
H           1.17836719230596   -0.61046777210469   -1.71921223772579
H          -0.09817817433959    0.23554593340772   -1.39844097544481
O          -2.88074576354066    0.37955380516151   -1.31084149762370
H          -2.15325167578778    0.98278212141995   -1.06434735363132
H          -2.59411631440303   -0.06084910332823   -2.11426982032716
O          -0.39859245913099   -2.15218561391898    0.14236345663225
H           0.27489680101561   -1.84511812064827    0.84610881346638
H          -0.16429156173112   -1.58767643732656   -0.72950300832709
O          -2.44840648706899   -0.98279036406982    0.92795396840546
H          -2.83338154186379   -0.56659067496506    0.12175747217349
H          -1.34060373484567   -1.76089791883621    0.48123277362518
H          -1.97632884688298   -0.24895529226327    1.38034695442983
N           2.76746333161716   -0.37377440851849   -1.19292173089592
H           2.52282943328184    0.33001727895281   -0.49799577641639
H           3.46496669622102    0.02295745861265   -1.80912893771009
H           3.19212344567206   -1.14969742222441   -0.70045288760197
