    26
        -50.46185107  Gyration_radius:  2.40107269129 Dipole_moment: 4.302
 S          -1.39392517899889    1.08932490984723    0.43179763623216
O          -0.53303843137490    1.10207485889116    1.60706530254332
O          -0.64914653622034    1.49325075365087   -0.75809271818598
O          -2.08949636873566   -0.16234653716251    0.26223029432642
O          -2.48977256530282    2.20125824847988    0.65795690891730
H          -1.95657045416789    2.98652237575334    0.71203551959097
O           0.77012808712947   -2.02678115098406   -0.33726465563980
H           0.41503678108672   -1.91076376190304    0.61330744540655
H           1.24209525586630   -1.10103862583463   -0.57092925559882
O           1.68791842998750    0.25220157288754   -0.77325291774126
H           0.86598867520638    0.79096095388570   -0.80148458971559
H           2.11313307697715    0.49113731375900    0.09496656877655
O          -0.56685144718645    0.23537048009140   -3.12921997745244
H          -0.70542211863803    0.82014605096822   -2.35927246222448
H           0.37358896025512    0.27087946604567   -3.31864887264083
O          -0.32240048838995   -1.48969659610504    1.91788679550290
H          -1.23753969621145   -1.76540439342329    1.80847821441828
H          -0.36448191648213   -0.50481855723774    1.90491922925076
O          -1.33818694945412   -1.82584280590800   -1.64170260650276
H          -1.81247094155965   -1.27576418188744   -0.97962112757367
H          -1.13019542785589   -1.20165682608438   -2.37545806212442
H          -0.11029071402225   -2.05193349998656   -0.95294703337916
N           2.35064850869116    0.83647769260650    1.73269696530935
H           2.56889733608703    0.04571542249368    2.32593220558099
H           1.37920196924963    1.08884146329816    1.90779178963451
H           2.93315216416050    1.61188536383094    2.02082941322967
