    26
        -50.46185108  Gyration_radius:  2.40106247962 Dipole_moment: 4.307
 S           1.70689901446362    0.46479050257207   -0.43068714005972
O           0.68187272961688    1.01107679724261   -1.31641971906209
O           1.52222417045100    0.94888976208367    0.93094476580471
O           1.80648790128945   -0.97183756123329   -0.50439467062664
O           3.08017982802012    1.05083431461512   -0.93958325842660
H           2.91473066188746    1.98630323815752   -0.89969348985997
O          -1.44752751679702   -1.56102352807523    0.53478768023371
H          -0.68721140073534   -1.50156404132499    1.21422587155389
H          -1.64721392091421   -0.55306710734834    0.25479883841332
O          -1.67323667320943    0.83529063505495   -0.12316639579229
H          -0.82708690886826    0.98623674212171   -0.60061827277305
H          -1.56042090509603    1.31621381848085    0.74152822346317
O          -0.85642453955058   -0.34222341021773   -3.05259395245483
H          -0.20668469590842    0.21179654511082   -2.57848883276132
H          -1.71372639567647    0.05279882274187   -2.87786390604503
O           0.64869142595145   -1.28456017209246    1.98288211883068
H           1.27296383106295   -1.91911337988245    1.61808411226333
H           0.99614442586498   -0.40948848232268    1.69060617942558
O          -0.21143532371855   -2.37221551631842   -1.46536126663527
H           0.65850882873111   -1.99762801655724   -1.20310966690001
H          -0.99850516853746   -2.00606732201547   -0.33410747519153
H          -0.51235307777003   -1.79713791642099   -2.20704631150396
N          -0.91004737852252    1.89873505066556    2.18904620382747
H           0.05917456865297    1.74768712487517    1.91364236213988
H          -1.08164733063157    1.33477613346955    3.01206738063968
H          -1.01435616013035    2.87049695669271    2.45052064152865
