    26
        -50.46797331  Gyration_radius:  2.47251045979 Dipole_moment: 6.430
 S          -0.67120937445167   -0.17787413006997   -0.89628171242411
O           0.05000925919779   -1.32312543045929   -0.34031867895695
O          -1.47123202720224    0.49966355469767    0.10688931115787
O           0.28521455897032    0.73908786263798   -1.53056643117120
O          -1.59821449528211   -0.68569750573619   -2.02091639989089
H          -2.43298142148562   -0.94646226981470   -1.52586202027838
O          -3.47382522211895   -1.22205252774402   -0.37231737471107
H          -3.07670331344264   -2.01104975704538    0.05261053174620
H          -3.12584584070691   -0.46608346281582    0.12490216124395
O          -1.74716267217263   -3.06090208196722    0.53545384357829
H          -1.57353322771909   -3.89055717113928    0.08784403879311
H          -1.02263588340095   -2.45213339793332    0.27607987956074
O           0.91865936797398    2.94872840641779   -0.16586146207935
H           0.53460877842069    2.23268169504197   -0.71486691470422
H           0.31798613486821    3.69160526735583   -0.24019630062630
O           1.89906723311053   -0.69013592035705    1.43859111259884
H           1.23914539376560   -1.15768790002740    0.88138156375174
H           2.50190748635173    0.10483651572188    0.37989402058751
O           0.26609760550352    1.29098554645118    1.98059448105967
H           0.59634667514548    2.05356661450741    1.48138556877784
H          -0.49045296134004    0.97031820244383    1.45171584692072
H           1.35490350421118   -0.00150490546264    1.89999085809401
N           2.68729397223495    0.74031221182837   -0.51717517539693
H           3.49930744721549    0.45174892168797   -1.05117972032816
H           2.74534658990802    1.72177185271224   -0.24501775413338
H           1.78790242244376    0.63995979904380   -1.07677326314785
