    26
        -50.46797335  Gyration_radius:  2.4724629348 Dipole_moment: 6.427
 S          -0.20094960460707    1.03379964691729    0.41987478068046
O          -0.85165511911039    0.96682719531736   -0.87526607299655
O          -0.52427202922299   -0.12225933868614    1.25634560376790
O           1.25756315490080    1.14408072322810    0.28363374878789
O          -0.66694954574986    2.30993031964380    1.15227251612518
H          -1.62654555927349    2.39740378124643    0.86714005323469
O           2.31658950111810    0.31277880771326   -2.02554266415818
H           1.88871520114316    0.77238729554367   -1.27225826477624
H           2.30777990902123    0.93412439756928   -2.75496936194374
O          -3.13782565180066   -0.09940460145845    1.68647736349941
H          -2.17327703635111   -0.20124649705863    1.53792734337798
H          -3.26387974213374   -0.09401060910186    2.63666638832051
O           0.40031503102999   -2.42407207172554    0.34444770439796
H          -0.09224628468190   -1.72272461124591    0.82402156929661
H           1.71733911484787   -1.81161066512612    0.42803201316740
O          -3.02637979343459    2.12345559237255    0.19178859406006
H          -3.34028332403582    1.35800424407804    0.71734853615877
H          -2.58157317677957    1.73566727839449   -0.57730645132308
O           0.03659497978391   -1.29406588276639   -1.99575347470454
H          -0.46026540648158   -0.51542751586495   -1.67686426517257
H           0.89839609529237   -0.93384071895552   -2.25523357945428
H           0.17410020563472   -2.24771306792908   -0.60464938330390
N           2.57550996499931   -1.10010562782407    0.43712710920021
H           2.10537603539485   -0.15270649687650    0.55377554835572
H           3.02647671582662   -1.08352242217848   -0.47779202745084
H           3.24134636467882   -1.28574917522273    1.17875670284994
