    26
        -50.46220830  Gyration_radius:  2.42244855303 Dipole_moment: 2.961
 S           0.12509008884378    1.12603218647408    0.53907563422289
O           1.29152320326633    0.34399428274132    0.92495572004148
O          -0.13092330677921    0.97910727455359   -0.90117169452302
O          -1.05443472959500    0.75664238627335    1.31005156589891
O           0.40442262938141    2.61985165348635    0.81723608747355
H           1.28685147063899    2.76830347065403    0.36967584488219
O           1.62073826004320   -1.18117397685969   -1.20904383304393
H           1.27886246968217   -0.55148997813013   -1.85106523509030
H           1.60986054275026   -0.68735722347281   -0.36036944322499
O          -0.46885673195037   -1.77259364325284    1.82658798730066
H          -0.71321641259487   -0.82676834054636    1.74851005962709
H           0.45873933581305   -1.75846682655982    2.07544064589553
O          -0.55491095953464   -2.57987605503502   -0.69132925787777
H          -0.58088858337415   -2.44628847696443    0.28967145039156
H           0.34463801851416   -2.26452377647834   -0.96303135479436
O          -3.36682518451242   -0.25096375886581    0.57875552364789
H          -2.63501699019129    0.28743099402400    0.95382725874049
H          -3.45731136214821   -1.01226802144787    1.15746710905480
O          -1.92071035348504   -0.67828655603503   -1.48982787331351
H          -2.62977445764160   -0.53498954973972   -0.77219520572397
H          -1.22510245556555    0.07151892206184   -1.32851214983296
H          -1.37481601744501   -1.59297053089759   -1.20181966923545
N           2.71954186780336    2.43285424493417   -0.36338726495597
H           2.73760956922639    1.50544836678465    0.05087474642733
H           3.58327888721212    2.91089303299351   -0.14258565617958
H           2.65163119163808    2.33593988941413   -1.36779098580650
