    26
        -50.45259873  Gyration_radius:  2.48638727354 Dipole_moment: 1.285
 S          -0.20236054564116    1.61339276610898    0.84873906618754
O          -1.54957241011807    1.50637190443682    0.28364896647881
O           0.07432194881367    0.47054118577874    1.71237875367954
O           0.81324909030746    1.86749147242555   -0.13360907663385
O          -0.23567768180217    2.87543249981536    1.79943596249259
H          -0.88431177571285    2.63039085627717    2.45069984865959
O           1.53054310836153   -1.39354490583645    0.36140986093401
H           1.15996828661253   -0.72093514363154    0.95884799438870
H           2.38723055419078   -1.00517379837421    0.08843181670558
O           0.18271670706764   -0.26854904192248   -1.65055175262432
H           0.68834457408841   -0.86292158176955   -1.05253668007630
H           0.33506199317709    0.61989677267267   -1.29090568498267
O          -2.20331615011100   -1.07925868608311   -2.23651684176920
H          -2.57598138206412   -0.44353188258914   -2.85022932295957
H          -1.24720741371019   -0.81604710735970   -2.10960923004477
O          -1.10021089862806   -1.89447077016819    1.54448306863825
H          -0.67434454856699   -1.05687130085077    1.82938032652551
H          -0.41526893014957   -2.35462970849206    1.04492567410646
O          -2.79982321273978   -0.63351418778026    0.16405463914432
H          -2.19919582568140   -1.26636224972422    0.72248840884646
H          -2.33249304571751    0.30241126771195    0.25123720874244
H          -2.65951868968086   -0.88468877026303   -0.83875863859388
N           3.40263036279118    0.44115286760694   -0.39649493659576
H           4.15769676171732    0.79276562849024    0.17925463842390
H           2.62931198662023    1.10033784931731   -0.32150625958329
H           3.71820712657650    0.46031406419795   -1.35869781009199
