    26
        -50.46009918  Gyration_radius:  2.46635071605 Dipole_moment: 0.822
 S           0.79602482386894    0.92142738193341    0.53110539404883
O           1.09523557635541    0.37233008901192   -0.78723061949533
O          -0.35128849591698    1.81395172123440    0.48799465440584
O           0.60037454305224   -0.15430005743533    1.50365404126813
O           2.03560829255485    1.72132866970339    1.01823779013886
H           2.09950240162145    2.41134570326866    0.30949131926785
O          -1.54935041081937   -1.59467609817393    1.86997214344631
H          -1.11981515626023   -2.41936815984820    2.11542121635309
H          -0.82248301206097   -0.92644210456716    1.84876591949289
O           1.23887526734279   -2.65906681567511    1.01893087769060
H           2.18187217818018   -2.81054441825992    1.09239284339563
H           1.09505946993077   -1.71335775967170    1.25861312449681
O           0.21274619857891   -1.98843675134535   -1.35318378414195
H           0.60584600392695   -2.46418408305423   -0.58696240988993
H           0.58670701279098   -1.06885922835210   -1.27638632609076
O          -2.34689264837242    0.94030473221863   -0.87246963622061
H          -1.54723518691769    1.30009410296660   -0.39408441433913
H          -3.10720912883826    1.30697135021628   -0.41620215719891
O          -2.10773334410505   -1.57845248693078   -0.61423401428015
H          -2.26123626372263   -0.58131206296881   -0.80216501373624
H          -1.10957011526741   -1.80945435710123   -1.02621304421503
H          -1.98595063647167   -1.64361927664839    0.40313193769552
N           1.60639174645130    3.13973950502945   -1.12221912095844
H           1.52902628379055    2.25034487947305   -1.60559549077515
H           1.95683333906607    3.83885977802900   -1.76529309876289
H           0.66866124125806    3.39537575694992   -0.83547214158326
