    26
        -50.46411422  Gyration_radius:  2.39249560801 Dipole_moment: 2.407
 S          -1.16894886810061    0.26876783749841    0.81048194044306
O          -0.90707750207707   -1.12925598744631    0.45124171123243
O           0.10052754947268    1.01778446372801    0.82803498017646
O          -2.14078966390628    0.87911436778758   -0.06820694867463
O          -1.73390812590758    0.29391114337960    2.24853312387253
H          -0.93774559703247    0.06562625184556    2.81029904206791
O           1.67659786532358   -1.03806045672048    0.72983621073908
H           1.34289029048314   -0.12399193334226    0.88397155625193
H           0.82944084437716   -1.52493742082221    0.70457293298044
O           0.91302897317522    1.65508407084073   -1.59011312578186
H           0.62023714732315    1.59306922623587   -0.64911732015357
H           0.09154238067045    1.62250531944820   -2.11388306961763
O          -1.53493961796821    0.97768396710863   -2.56565718780853
H          -1.83742121308400    0.96952432043626   -1.61588380656225
H          -2.24693460553179    1.37707821691517   -3.06718673522256
O          -0.53512900419735   -1.50726429319066   -2.11103863393052
H          -0.98934795877924   -0.73969284584527   -2.50555358789956
H          -0.79823713303495   -1.49606651159083   -1.15700213478573
O           1.79978034111866   -0.68000766885658   -1.78730242316998
H           0.86745999895328   -1.13250182936476   -2.03102637333003
H           1.55876906889454    0.34923478533237   -1.78842650921818
H           1.93113748182525   -0.90411818656890   -0.78939281823157
N           0.52439804075461   -0.19239722950620    3.50582470768025
H           1.03505128385234   -0.95771892083914    3.08183365672694
H           0.53544694354244   -0.31225557847825    4.51050632892044
H           1.00417107003666    0.66888489201713    3.27465446333159
