    26
        -50.45439449  Gyration_radius:  2.56749272276 Dipole_moment: 3.239
 S           0.72220120841234    1.25613165333705   -0.01295431123567
O           0.20498365462846    1.18434885149988   -1.37287253536175
O          -0.20514532065603    1.92677686139515    0.88910330621053
O           1.07300483039207   -0.07065592874479    0.49254341765379
O           2.05467905963997    2.06943625520726   -0.04707425632103
H           1.75074365636196    2.94902668290671   -0.38101030020398
O           1.17570428801211   -2.22837289422343   -0.89660897421308
H           1.18322946665382   -1.37034261255916   -0.38305062332542
H           2.08565440850481   -2.38128609757466   -1.15384623399373
O          -1.22691893738208   -0.94869706604233   -1.48130408638602
H          -0.49887534689990   -1.56991950768612   -1.63169773187656
H          -0.77999307808285   -0.05846800425543   -1.49629860324493
O          -0.81359217098270   -0.01794366585398    2.44021965950740
H           0.07808990598959   -0.38676710972327    2.44620336545866
H          -0.69517948746814    0.83203942909526    1.92989602087248
O          -0.32122964561288   -3.59941403034412    0.82337640458691
H           0.33808018285714   -3.17849462939191    0.22290276383910
H          -0.62964244134127   -4.39511590109456    0.38652191251986
O          -1.92662014881601   -1.58282732703120    0.83905552978493
H          -1.52402051946939   -0.88708695564780    1.53885188378946
H          -1.70513542340238   -1.24173020590196   -0.14020995729945
H          -1.37180659375353   -2.42468134090771    0.94040085648027
N           0.52119688814257    3.99443547163964   -0.93024667806388
H           0.37921069598136    4.95157840175897   -1.22929515850204
H          -0.07273764008483    3.80813125287661   -0.12824858371374
H           0.20411851838207    3.36989842726437   -1.66435707695960
