    26
        -50.45439446  Gyration_radius:  2.56756503539 Dipole_moment: 3.238
 S           1.33760569173122    0.52582699582172   -0.18477588659040
O           1.07457298388743    1.02959621571471   -1.52656143612313
O           0.80009773837265    1.40628516387313    0.84371776630878
O           0.83348483609908   -0.83854008235396   -0.03253719102557
O           2.88352201737670    0.43814002833077    0.01661173965210
H           3.16168436911743    1.37838991417262   -0.11032429550623
O          -0.49458774521076   -1.73434781665834    1.97505251934694
H           0.11219839478548   -2.18085817253760    2.56666406575995
H           0.06929832337126   -1.38372320020080    1.22737868940388
O          -2.40605791050863   -2.78334095453160    0.45010794833742
H          -3.16391155453751   -2.97359607550843    1.00559222064206
H          -1.66644555001277   -2.52753619894133    1.04999709201436
O          -0.49782954273346   -0.79570058420923   -2.39479907962154
H           0.08378321467312   -0.00493320911550   -2.21197012409144
H          -0.02068827210281   -1.51364656763717   -1.96101531390234
O          -1.64117964745855    0.68182916998670    1.20015909512695
H          -0.74479981231487    1.09051701402369    1.05188326501906
H          -1.45744261486792   -0.05460540974821    1.80218929887161
O          -2.43454843396706   -0.54776755579122   -0.83317794229974
H          -2.11288066773928    0.06073575185257   -0.02659023705538
H          -1.64675633753946   -0.60506259059787   -1.54898877997000
H          -2.50689614484861   -1.47508004783897   -0.43133176373545
N           2.79817605903703    3.01347546101193   -0.42824844113780
H           3.25346369413853    3.90884510440413   -0.55771212882762
H           2.12014305601049    3.09467737047455    0.32220757635219
H           2.26599383519865    2.79042026601369   -1.26352867697429
