    26
        -50.45439430  Gyration_radius:  2.56733358578 Dipole_moment: 3.235
 S           1.36901050035050    0.29093080158370    0.36828126998262
O           1.86650505509881    0.26703494490643   -1.00097802505330
O           0.69331641505231    1.54272455630628    0.68222603386221
O           0.50365523150559   -0.85907497385921    0.62826245238065
O           2.58343611902343    0.14305575231538    1.33868763270235
H           3.12945087501648    0.93418564925008    1.10751334702717
O          -1.74846752201487   -0.79843363429805    1.86071320593270
H          -1.60113483449274   -1.04041131563635    2.77576237891813
H          -0.84528290487051   -0.81127133281473    1.43163047855508
O           0.40566884530843   -1.59521484306235   -1.98051955644732
H           1.03666702145187   -0.85261208583285   -1.76368344783829
H           0.43645077268952   -2.13846428595725   -1.18364394462732
O          -1.75479362717213    1.23580000381188   -0.04153699201689
H          -2.05484904895858    0.77073101870511    0.75361502713869
H          -0.81048962217654    1.47302613280355    0.16953015963520
O          -3.00333133624845   -2.16995307190926   -0.04255748434243
H          -2.56188093547393   -1.77373082285651    0.74519528797344
H          -3.94776318080962   -2.06321415440105    0.08279654537668
O          -1.87511905469343   -0.59732096868681   -1.74469740061331
H          -1.78940581896249    0.24020182184855   -1.10008982433248
H          -0.90115141475266   -0.99291019266394   -1.91822575743736
H          -2.35759391505164   -1.29207828433218   -1.18657576067110
N           3.39477364145651    2.35142058733786    0.19755032320451
H           3.25020920643153    1.87830149572030   -0.68897276923743
H           4.07923576920697    3.08691881314136    0.06992646160374
H           2.50288376309991    2.77035836856167    0.43979032831770
