    26
        -50.45878751  Gyration_radius:  2.49226269775 Dipole_moment: 3.597
 S           0.45660061545179    1.37889872148500    1.52754028927781
O          -0.40333130418785    0.80774256884125    2.54512956268403
O           1.71189747647326    0.64859360265160    1.39403713376523
O          -0.20859345400999    1.57045388916969    0.25804422123159
O           0.84508823721268    2.82533042533080    2.04706816482279
H           1.07283340445309    2.63850143047928    2.95145664195536
O           1.29121565029717   -0.95717627240707   -1.99225951790837
H           1.06390385486438   -1.39285779515692   -1.13420252102583
H           2.02918018371596   -0.34469497214134   -1.76068403613375
O          -1.88532843010508   -1.03173080446382    1.49098259481790
H          -2.20351880573144   -1.53742349731896    2.24124894051384
H          -1.39672120621974   -0.26159421049633    1.88102669647784
O           2.99267659958984    0.76915387986833   -0.91293144295319
H           3.89104661514602    0.51423873532662   -0.69682490689704
H           2.51274204353259    0.81498241218122   -0.05575344776274
O           0.62808629583199   -1.62852845557848    0.47697919230450
H          -0.29170713939781   -1.57168643512230    0.78039748064038
H           1.09274926347510   -0.88882428379142    0.90931992561580
O          -0.61547815055708    0.62354565538088   -2.05504942794434
H           0.21898226336879   -0.05836816019364   -2.13698964119246
H          -1.45156557662355    0.01968330362497   -1.80829886633139
H          -0.42533998298111    1.12402560043147   -1.20187025825114
N          -2.54934390501102   -0.86137943606426   -1.30615551413280
H          -2.40903734034928   -0.88579675857197   -0.29516087233807
H          -2.48859342185782   -1.80872277602921   -1.65697460836286
H          -3.47844377638033   -0.50636636743841   -1.49007576287222
