    26
        -50.45878743  Gyration_radius:  2.4921742714 Dipole_moment: 3.592
 S           1.15162495643877   -0.90987777435015   -1.51290292357647
O           0.46386391968828   -0.31561142769550   -2.64205270215631
O           2.11328108113408    0.00583749476743   -0.90983137105558
O           0.25528697292736   -1.49027341319728   -0.53800541054946
O           2.00181027679579   -2.11041911492130   -2.10336731206392
H           2.39864752990048   -1.69614254176200   -2.86205564261302
O           0.30787149541193    1.78255664706451   -0.02420298769654
H           1.03381269849305    1.25579188816788   -0.40567353555026
H          -0.46217256559882    1.61310443157084   -0.58952555286968
O           0.47033069511421    0.74727920026670    2.40268793847669
H           1.36974926549010    0.35269453686319    2.30966672407814
H           0.36720787733956    1.30150140058926    1.59031132541146
O          -1.64114655428892    0.93605426381674   -1.80929876525999
H          -1.87321122339242    1.51727480397174   -2.53606343656434
H          -0.89626031617950    0.37548052397631   -2.14826809146635
O           2.75865708498667   -0.34899326935756    1.62669710790251
H           2.53728353439209   -0.30450312320193    0.66949048464835
H           3.59210413380018    0.11420026428721    1.72461155428748
O          -0.94239949036652   -1.15048198748418    1.66719549002971
H          -1.81055809366509   -0.68198497913074    1.27829677648653
H          -0.42605917419679   -1.41309211838404    0.84318301228467
H          -0.34928879125823   -0.35264990096619    2.09104186057177
N          -2.92707535626457    0.05547568116147    0.61248080514289
H          -3.19000256043573    0.90141805007709    1.10184653278552
H          -3.75671209150639   -0.50306763526949    0.46147041492814
H          -2.54664530476120    0.31842809914006   -0.29773229561449
