    26
        -50.47039572  Gyration_radius:  2.41537311686 Dipole_moment: 4.735
 S           1.11615207726628   -1.67932736702478   -0.24817002283128
O           1.94142881491615   -0.61222806574011   -0.79098519220298
O           0.94240588680384   -1.51407993579157    1.19763508361998
O          -0.13289849628473   -1.86712844952610   -0.94262092604615
O           1.93522083543363   -3.02025128741103   -0.43719929409285
H           2.77093768831686   -2.81117488891435   -0.03436691075619
O           2.00703706864967    0.83636920047092    1.51404953235822
H           1.59935117751784   -0.05494888775183    1.60991128321192
H           2.52017728446477    0.73971794547859    0.70135375380498
O          -1.67568763792916   -1.67026707272311    1.25117357970674
H          -1.66189505775920   -2.07580553037365    0.37413740766387
H          -0.72334580520205   -1.63841226474844    1.47734569787883
O           0.64956946719758    1.42767180187742   -1.92471283486257
H           1.22038771536509    0.67430129422751   -1.66192513880795
H           0.26804564778403    1.99264382144521   -0.58689424988712
O          -2.31382689309077    0.79242343042759    0.71791528262007
H          -2.08235800915246   -0.15103553681537    0.96785673163797
H          -3.13307132821856    0.99099865813011    1.17282872128203
O          -1.64001450972869    0.10229939767900   -1.99114337172754
H          -2.08398520163937    0.38674539797411   -1.18097760410773
H          -0.20274334853077    1.01218154425069   -2.19796174245760
H          -1.16536369415624   -0.71616104440409   -1.75466343363812
N           0.00841766661182    2.19604011286563    0.45533293226359
H          -0.03735135106860    3.19138216555381    0.64089269221657
H           0.77719478158715    1.73061258023299    1.02263748910636
H          -0.90378476917293    1.73743297058968    0.64855051403932
