    26
        -50.46067663  Gyration_radius:  2.43727853265 Dipole_moment: 5.108
 S          -0.70718770818118   -0.18723379865436   -1.79387429389392
O          -0.90468115150804   -0.97212020913075   -0.58594591475360
O          -1.38860466865291    1.08977880777431   -1.74550848908760
O           0.69439743293180   -0.07480674391516   -2.15026680118872
O          -1.40654739256132   -1.02581072795673   -2.94781337207354
H          -1.34834445391173   -0.43867809809057   -3.69441656082936
O          -1.58302585505326   -1.66896027244915    1.89186448408468
H          -1.63320849954143   -1.67475561650087    0.92006220201164
H          -1.76588745262035   -0.74921626466294    2.12639386857378
O          -1.52192155000505    1.03511363532832    1.06168522768676
H          -1.98704175779728    1.73990287414561    0.60418171774601
H          -1.32454331351099    0.38160384555497    0.36038315264559
O           0.75371348235606    2.64931588449019   -1.47103911417064
H          -0.12129937065846    2.23502580954279   -1.60018943897154
H           1.35729479619275    2.06288661841232   -1.93755206045555
O           1.09796890235082    1.87207142128873    1.08012809218197
H           1.06094909495730    2.36907533414700    0.23448767666672
H           0.17064888591611    1.64814918170438    1.27712777393245
O           2.01281745498762   -0.35716610631748    0.10193928392946
H           1.78261444336725    0.52428935264495    0.52028425920809
H           1.43924863344745   -1.29740648261252    0.95957003932659
H           1.56595699467170   -0.34471448609180   -0.77704464730298
N           1.04040378414453   -2.04223106093916    1.72755869204224
H           1.53159970725267   -1.91303886026239    2.60628378488040
H           1.18753239079317   -2.98285446062916    1.37675925400329
H          -0.00285284936912   -1.87821957682103    1.85494118380808
