    26
        -50.46206279  Gyration_radius:  2.40741488706 Dipole_moment: 2.089
 S          -1.09957393931420    0.95027172907338    1.06230088436654
O          -1.26868924501969    1.15287304604169   -0.37308049096722
O          -1.50747460122593   -0.38656402779558    1.45851431958516
O           0.23512754072286    1.29100012676012    1.50590854079409
O          -2.08671724183424    1.94789738694896    1.78312005308145
H          -2.92821695521226    1.53444858948396    1.62415316873641
O           1.02137749489533   -1.87210909344299   -0.55650563113805
H           1.21218453851928   -1.64245594553248    0.42021656164288
H           1.04611639622259   -0.93687419777037   -1.07975488014971
O          -2.22113283765157   -0.50556043884627   -2.24340179175196
H          -2.01118815272322    0.19801311775214   -1.59844677591961
H          -1.62031295078318   -0.37258017362082   -2.97979433401918
O           0.94310486312544    0.38423333614217   -1.60592032456932
H           1.67976928352718    0.89577000717189   -1.16894124742186
H           0.12159407481881    0.75382089796661   -1.21242186564203
O           1.15205892488991   -1.12663598660222    1.88818484870200
H           0.90729923350866   -0.17475544404224    1.82193256172448
H           0.38448057250049   -1.53900691360204    2.29662207424558
O          -1.43459689914438   -2.25672390876029   -0.39777151806659
H          -0.00835237665094   -2.15467954797448   -0.55306594214854
H          -1.58397665495994   -1.64801211343964    0.36130318728415
H          -1.84051031606846   -1.79734714897458   -1.16782001625553
N           2.63904505750230    1.70022566156550   -0.04773867099835
H           1.90009706734452    1.77414455541986    0.64987190286268
H           2.96021988472250    2.63564346905633   -0.26116697567754
H           3.40826722828295    1.19496302698919    0.37370236172413
