    26
        -50.46658019  Gyration_radius:  2.39988672072 Dipole_moment: 4.036
 S          -0.05346149075067    1.17533710440403    0.61843072618229
O           0.95507660243514    0.12935672072296    0.85707523501247
O           0.04218570009727    1.65829280166584   -0.75372287200812
O          -1.37972135044361    0.68642761810492    0.94857060281783
O           0.25864528233995    2.34606883788097    1.58439550366075
H           1.17230697420473    2.61236325482866    1.29539851774415
O           0.90060002820587   -1.73921117791497   -0.99611781214317
H           0.45165858584914   -1.28397106341860   -1.72981353364999
H           1.08434436805060   -1.03703909499011   -0.32797425171513
O          -0.72658330349834   -0.10769857497224   -2.47121081417105
H          -0.79517404477709    0.29546743533776   -3.33787124929479
H          -0.45383231846009    0.61962078078888   -1.84748790344418
O          -1.01138939027562   -2.76756902325729    0.27323392990360
H          -0.82319703804579   -2.36847093141895    1.21444177163776
H          -0.16459477877108   -2.50246670600967   -0.28401906025945
O          -0.48729856160875   -1.44594666815951    2.36854840637793
H          -1.22233972995608   -0.82118787138738    2.42185980301645
H           0.22565837450411   -0.90933978346681    1.94936388048616
O          -2.54076710686731   -1.02155237192809   -0.66642628053029
H          -1.76451800916987   -2.14321524548552   -0.13062377936369
H          -2.28910977642511   -0.30704841171722   -0.03456927349292
H          -2.09971960214561   -0.76992788173080   -1.49891593467367
N           2.53542928820411    2.52347204785335    0.33532295587593
H           2.92660458469613    1.62230077371404    0.58027561753181
H           3.29050178353485    3.16482838657699    0.12835834155260
H           1.96869492908869    2.39110906399831   -0.49652253704972
