    26
        -50.45770213  Gyration_radius:  2.42038093976 Dipole_moment: 2.958
 S          -0.24180987251875    1.76168144275601    0.32238464855143
O          -1.03204007741847    1.78007186047901   -0.90431864184356
O          -0.71510583864709    0.72677526200754    1.23355814583302
O           1.18045422080700    1.67239595058008    0.09311293134598
O          -0.53145496498343    3.15324993131865    1.00674262291013
H          -1.34800212597268    3.39182889584451    0.58100102886980
O           0.58686707858450   -1.51083887871885    0.55203228771570
H           0.07969527548633   -0.73687116175158    0.87041670901069
H           1.43105384707860   -1.43049183093537    1.04421040629227
O          -1.59693588864821   -2.00393593254980   -1.05670348511768
H          -0.82239857547602   -2.15277698602813   -0.48908764644336
H          -2.25363486610692   -1.53673739437718   -0.48693391641521
O          -2.97355310513076   -0.48790243391163    0.63118703975677
H          -3.29770742481688   -0.86564825540010    1.45058847620038
H          -2.18639533444807    0.05014481599894    0.86877808540366
O           1.59123310752243   -0.30967143093501   -1.62423808010344
H           1.39440480762222   -0.96883276764709   -0.92149118443127
H           1.63234700810366    0.53608887068522   -1.13129001032633
O          -0.74163627558626   -0.14230625049968   -2.50109735743070
H           0.29121211683238   -0.24280579458677   -2.31690422033843
H          -1.17540280877446   -0.96582761529744   -1.99191027356885
H          -0.97253262278764    0.68426246587004   -1.94038350886578
N           2.77326949303687   -0.32783257361316    1.62377788009766
H           2.35753971656067    0.51194199893062    1.22318068030222
H           3.70793287125673   -0.41230875940440    1.24288775820292
H           2.86260021842375   -0.17365340881320    2.62049963439276
