    26
        -50.45770215  Gyration_radius:  2.42038559534 Dipole_moment: 2.957
 S           1.13238782450724    1.35070684078013    0.39912856961509
O           1.46198197823068   -0.04714257704999    0.64951484136131
O           1.13765423049005    1.64149338609136   -1.03092407710730
O          -0.08457309463982    1.74809685054322    1.06580524678430
O           2.30915615890795    2.21998135423238    0.98928357493323
H           2.82162790935138    2.37843114614940    0.20371312363386
O          -0.85341062157912   -1.38580157858861    0.53256468220717
H           0.03013132492414   -0.97106268709571    0.60304651179377
H          -1.21092833906150   -1.28285555953932    1.43972862649571
O          -0.22011823585129   -1.76777065718241   -2.12333184425340
H           0.75897184317891   -1.76245556736492   -1.99876511923862
H          -0.59223610839072   -1.91490903959150   -1.23783675518936
O          -2.11940919090556    0.80470541126817   -0.35413532335655
H          -1.52964350306528    1.36118485107937    0.19585276180405
H          -1.92830181110302   -0.10603256101565   -0.03607390298708
O           2.31380502299837   -1.48266026163096   -1.38827293901344
H           2.08209543475508   -0.89275821632898   -0.63735157900829
H           2.78343650498441   -2.22762188600999   -1.00925740527356
O          -0.72163033972268    0.67025883671827   -2.41988276919859
H           0.09618849388589    1.10935180593857   -1.98477138437826
H          -0.52119229868618   -0.37158972179902   -2.42329247278456
H          -1.45136970808480    0.78785059793229   -1.66858862205977
N          -1.43834593819486   -0.18387618428552    2.88662657284146
H          -0.94220446850398    0.59936473936837    2.46364738608474
H          -0.95255041287256   -0.42117521855314    3.74275681244382
H          -2.36152265555615    0.14628588592815    3.14081549384049
