    26
        -50.46448226  Gyration_radius:  2.45258486153 Dipole_moment: 5.455
 S           2.01589556892582    0.15145725778370    0.23111490458033
O           1.61090777116160    0.76755962582079   -1.00907306339279
O           1.56562536796933    0.86145984913556    1.41340305660808
O           1.65747653313955   -1.26738522201000    0.29789313613986
O           3.59686764859984    0.19784921350576    0.26227620121788
H           3.75875897126336   -0.04153309628832    1.16751004371969
O          -0.77704543819658   -1.89160770792626    0.93892646071401
H          -0.78166368159436   -2.81228296587792    1.20566355312944
H           0.16462100024006   -1.68016239598762    0.70492055241788
O          -1.49599773211732   -1.17477020711558   -1.65745933660751
H          -1.44544544293876   -1.47875910178977   -0.73740409597613
H          -0.65158859174068   -1.46913924504681   -2.06249153597416
O           1.08648831624564   -1.63755633860776   -2.29974573405663
H           1.37666016313529   -0.77536956888250   -2.61284768156934
H           1.37621216158694   -1.65766750814798   -1.36946937506626
O          -0.81422185667549    0.40255760728354    2.36999208209660
H          -0.96673338600052   -0.48789789578928    2.00139858551223
H           0.12846329959449    0.59828446216103    2.14545613492237
O          -0.90182359874872    1.36594668931889   -1.50928457111598
H          -1.23138188891951    0.43644604777629   -1.66615192967562
H          -1.46477601328920    1.79152538172582   -0.27282059594682
H           0.06735732865632    1.25938329235143   -1.37654962165362
N          -1.89131006575372    2.08633312013971    0.72373763042058
H          -1.58541766630363    3.02541117446394    0.95551593145552
H          -1.49350240820121    1.38795934580704    1.45748232543905
H          -2.90442638003302    2.04195821619488    0.69800692266275
