    26
        -50.46448238  Gyration_radius:  2.45224132694 Dipole_moment: 5.468
 S          -1.51918167903483   -0.18639799960316   -1.33918028027187
O          -1.68815068338270   -1.40958450552653   -0.57762259825732
O          -1.69606649250424    1.01498676615294   -0.56027229631941
O          -0.25565055470617   -0.19561738816682   -2.08039281283019
O          -2.66108351733577   -0.18596141563495   -2.43405719773235
H          -2.59271917890887   -1.07760561462895   -2.75565968452052
O           1.85646083866120    1.67643070439036    0.32843548555698
H           2.05476280436528    0.77389899497935    0.03254310956210
H           1.46725175380179    2.11541447801971   -0.45870222886498
O           1.91037176421287   -0.86364459376285   -0.81943315086346
H           1.09424748496741   -0.61752271558937   -1.32885997962131
H           2.57381646646196   -1.08354338391595   -1.47540453450689
O           0.36591492247882    2.40212055537245   -1.80400759588622
H           0.19223726893714    1.48106056399169   -2.07091493662222
H          -0.45742800660971    2.68172598529518   -1.39223846642386
O           0.32759471776145   -2.40733877962854    0.73762717665960
H          -0.47770038034752   -2.16738103284095    0.21675587516278
H           1.06236960771595   -1.99940293294861    0.24196019347491
O          -0.36841031491230    1.41720745476606    1.67525190598080
H          -0.97014456652932    1.31533080449839    0.90333025850391
H          -0.25372027707001    0.14728861885362    2.30959036344030
H           0.52211266646276    1.61200914415100    1.26768976683566
N          -0.14545968646627   -0.87207597819762    2.76847679816798
H           0.08654910046049   -1.56109059139528    1.95861089122601
H          -1.02460499840051   -1.14269477974732    3.19635420520883
H           0.59663091992181   -0.86761235888182    3.46011976294325
