    26
        -50.46658034  Gyration_radius:  2.40023406334 Dipole_moment: 4.044
 S           0.69553037506458    0.31070717828990    1.08852791115631
O           1.26909228733282   -0.05866128039232   -0.21627956253645
O          -0.07354976853325    1.54307267518919    0.96556065676532
O          -0.08713996320944   -0.78632482687447    1.62796239915927
O           1.87808962103870    0.55315762930999    2.06010903360977
H           2.35507481095615    1.30623928796400    1.61882215944308
O          -2.42632800594608   -1.31465186565884    0.56918512500289
H          -1.63481729743036   -1.16736784881055    1.13931932798506
H          -2.64634141023895   -0.42620735988638    0.23258092933126
O           0.95588129837741   -2.65072410455130   -0.04425674329687
H           1.27773803473029   -1.73316261212994   -0.20669704793991
H           0.66037977931394   -2.61437553348850    0.87489304791966
O          -0.53514221402634   -0.05277704760088   -2.13273872744565
H           0.23284747555100    0.03425245266967   -1.51963042120760
H          -1.23106042410345    0.51189228947067   -1.75345701352815
O          -2.23592292820881    1.21475261213878   -0.40410643481552
H          -1.43262073257438    1.38508190004585    0.15986971374288
H          -2.78499760726162    1.99665039100776   -0.32977389674605
O          -1.19354260730627   -2.34998959054406   -1.34858693014618
H          -0.30921777630822   -2.62747500542816   -0.87783082212987
H          -1.81985374085402   -2.02528887980303   -0.55921017426405
H          -0.94730937711546   -1.45523214183117   -1.83460300926744
N           2.57455768470592    2.46995850642651    0.44222735932627
H           1.57948731507883    2.67082772038967    0.42634245096709
H           2.78642817733995    1.92703658364005   -0.38560062530440
H           3.09273700363001    3.33860890045599    0.40737130422097
