    26
        -50.45608062  Gyration_radius:  2.51595652414 Dipole_moment: 3.354
 S           1.40533289873927    0.43902902943891    0.14632931758200
O           0.12159262508252    0.79858174872777   -0.62520673392306
O           1.20866023029118   -0.86893681042845    0.74789727150985
O           2.54299277005668    0.51832000438606   -0.71701495436463
O           1.47676674010347    1.50302604729007    1.21518182793029
H           0.56206020124602    1.53239173374622    1.76690017839598
O           2.32762291844409   -1.03190698041948   -2.86182685700818
H           2.75932290050493   -0.58411700947991   -3.59157544612880
H           2.54323467636655   -0.51500710374358   -2.05796101140124
O          -0.40286656002660   -2.74007494885217   -0.36900826881992
H           0.35656922117329   -2.27626706077296    0.02530797159423
H          -1.12781187387011   -2.61888223353527    0.25063098815007
O          -0.88206067062210   -1.17195382002826    2.30588247768873
H          -0.07347202345621   -1.10275823479014    1.74837004150752
H          -0.61438519943699   -1.61886727051336    3.11097411803890
O          -0.69774628696098    1.50747733372244    2.41236747771717
H          -0.92529568403449    0.55493033834256    2.47808565090925
H          -1.32450211007319    1.89059296200384    1.73928564972837
O          -0.26403112498976   -0.95540727528468   -2.32953607646706
H          -0.07216146176940    0.07105591370143   -1.38801650076838
H           0.64396011417257   -1.08062788225906   -2.69480904380395
H          -0.42890804216606   -1.74331169271199   -1.75900279815410
N          -2.20381845996857    2.33197323267693    0.36527783143924
H          -1.54115785884939    1.93325534686791   -0.29336158447595
H          -2.28334778986498    3.32215092432858    0.17373646189330
H          -3.10655015009801    1.90533369758428    0.20109199122473
