    26
        -50.45608068  Gyration_radius:  2.515891418 Dipole_moment: 3.353
 S           0.78985334513408   -0.62683640626506    1.08198832614247
O           0.82516548821113   -0.40773156022498   -0.44216152591809
O          -0.54539799635971   -0.29181832455805    1.54672665572175
O           1.20131668459102   -1.95870158622192    1.40264932264925
O           1.79279900596864    0.37600366235120    1.59966473460354
H           1.55712846339352    1.35304989687916    1.23696388048603
O          -0.26786571330255   -3.81536226765322    0.20133087778603
H           0.25680507496375   -3.21097367590650    0.76644786410145
H           0.30543019731307   -4.55654792723763   -0.00196154372244
O          -2.73291416272931   -0.58321491995063   -0.02642112969024
H          -2.83242397312139    0.35321782335896   -0.21982817414147
H          -2.09960745356091   -0.63058139214604    0.71113041760252
O           1.17400364006362    2.59635307883115    0.67826807946594
H           0.19338160508327    2.59741910891282    0.72109834470189
H           1.40356455435512    2.51087527259168   -0.28742368593524
O          -1.45226508776777    2.10228853561889    0.96743307823034
H          -1.84310420949086    2.49079621420098    1.75219442205852
H          -1.14946922886636    1.20239818014449    1.22806209170481
O          -0.90149605583947   -1.85817088721460   -1.46420690351272
H          -1.72618241586478   -1.46558871651623   -1.09091621076096
H           0.10226310959584   -1.03330097210924   -0.92645677924052
H          -0.76732345701529   -2.70336098312387   -0.97320397357657
N           1.65048456835546    2.03414367919720   -1.89000484463037
H           1.46671107598192    1.05021387838634   -1.71696107238264
H           2.59137325324433    2.12149845716545   -2.25127923707166
H           1.00776968766708    2.35393183149649   -2.60313302467151
