    26
        -50.45608070  Gyration_radius:  2.51591502829 Dipole_moment: 3.356
 S           1.43908980061369    0.17125916972922   -0.29740248116807
O           1.21331167126267    0.11502441538766    1.13686923630937
O           0.06395793182620    0.25461206069690   -0.98615141246037
O           2.27068944503780    1.25784278028213   -0.71418813776028
O           1.99596480406250   -1.14173890717018   -0.79306906571503
H           1.30103935305871   -1.93088334381764   -0.60363688193978
O          -0.94106060826425    1.27513275451775    2.30283064690449
H          -0.03355391315063    1.00840361088051    2.07360139345832
H          -1.42231512912339    0.45472156283852    2.44284057130532
O          -0.35232376424737   -1.79289484227781    2.03064473060286
H           0.06028087028618   -2.21172531488319    2.78820344676707
H           0.25841279369885   -1.07437484978345    1.74750631038576
O           1.18201792740026    3.63456551335387   -0.24960757346176
H           1.44835558002475    4.22239053543987   -0.95881493792786
H           1.70642620032731    2.81475888274931   -0.36263135328921
O           0.29894332644040   -2.89423515473563   -0.33335761982285
H          -0.42391138553498   -2.68397422064868   -0.98587341546047
H          -0.05519644414372   -2.64532456624754    0.54759874826595
O          -1.08942397161770    2.27946721653033   -0.15004213180738
H          -0.46283322838083    1.13077904439192   -0.66423779142937
H          -1.20758310786591    2.05259843183426    0.80289984479074
H          -0.36239076787786    2.94610733427379   -0.17347476669370
N          -1.57956633087786   -1.98364599866382   -2.00119978978421
H          -1.21518906413691   -1.03994193871867   -1.90889800575393
H          -2.54916243262576   -1.97659306795137   -1.71184947115605
H          -1.54397957619690   -2.24233109801530   -2.97856009316513
