    26
        -50.46157684  Gyration_radius:  2.43396229539 Dipole_moment: 3.051
 S          -0.35834232915756   -0.43852718721238    2.07778439787638
O           0.68805254434892   -1.43774417571512    2.02301104028007
O           0.10659738822096    0.85563979393351    1.58446144314667
O          -1.59064045740763   -0.84647262698513    1.42962030234310
O          -0.71475711636811   -0.24412856505110    3.60457729778455
H           0.13575698117204   -0.27397234264929    4.03070637983822
O           1.89357938810988   -0.07115754900910   -0.10807469478988
H           2.23248107865174   -0.84304823591671    0.35476271001540
H           1.30112008004866    0.35867833953133    0.54615660267907
O          -0.91704869559695    2.32938417372182   -0.39106909551865
H          -0.53698212905656    2.01895839056471    0.45511770031416
H          -0.15247330735743    2.34909291561697   -1.03730481066784
O           0.01719516344279   -1.12590628015902   -1.72585142516493
H           0.77772236758526   -0.69325352246120   -1.27884700734630
H          -0.10509263690205   -1.96757943584732   -1.22497883858907
O          -0.33761040624164   -2.99985042812022    0.11864508788916
H           0.12867337134479   -2.54921681135874    0.85052529010515
H          -1.26325889200196   -2.98340795321249    0.37519021146042
O          -1.97337448201546    0.14424366424168   -0.87298584719423
H          -1.18766329125964   -0.37188340108675   -1.35097885217424
H          -1.96999367470433   -0.24793945834107    0.06423199986926
H          -1.61140809727785    1.16162732828626   -0.73125384196515
N           1.14093584598305    2.04700081903081   -2.05692154104265
H           0.87454509722299    1.51087449441417   -2.87363429942977
H           1.75491355286374    1.46527115426355   -1.49554418028969
H           1.66707266635257    2.85331688951888   -2.36734602942588
