    26
        -50.46157680  Gyration_radius:  2.43395621288 Dipole_moment: 3.054
 S           0.98548002282335    1.11189575058853   -1.55900620227420
O           0.87951845093736    1.56553954379403   -0.17428393674611
O           1.93878688763560    0.03061296406461   -1.69478452875979
O          -0.31694692872794    0.81751450021942   -2.12651076448508
O           1.55867014156503    2.32433866708728   -2.39411719640332
H           2.49090513474858    2.29590879115822   -2.20462118966015
O           1.46292813645833   -0.73442041288435    0.96019468508997
H           1.30545674099207    0.17316852455556    0.62070860004000
H           2.11722414020792   -1.09957698252647    0.35733113699516
O          -0.82267147432735   -1.88552651422720    0.12252549127735
H          -0.01833306656211   -1.54647116702545    0.57360420671841
H          -0.50495450796209   -2.12594545456477   -0.78051791933884
O           0.24259999084612   -1.93583922429690   -2.30696104915588
H           0.97432612494870   -1.30934831946079   -2.13898637808043
H          -0.35137824234694   -1.46192656662989   -2.89472935389325
O          -1.30563556549462    1.69888190102860    1.35205781076616
H          -1.07210131589213    1.05795581055035    2.08509216081218
H          -0.46385618315363    1.88736401706424    0.89080563180950
O          -2.10788783731392    0.19583051472462   -0.44236682029721
H          -1.50261678243955    0.50626272643391   -1.19696421920231
H          -1.68050692325406   -0.72497206681354   -0.15648148283087
H          -1.88630075747864    0.88606908187997    0.37049524268142
N          -0.58483104775230   -0.21684296387718    3.05506871897880
H           0.31884756507354   -0.47505933265363    2.67137332765041
H          -1.19320074831173   -1.02213456727247    2.97254872689537
H          -0.46352194521055   -0.01327919093230    4.03852532141842
