    26
        -50.46658029  Gyration_radius:  2.40027915006 Dipole_moment: 4.045
 S           0.47040847019941    1.15695261898353   -0.45219020092143
O          -0.12267720005230    0.93653385088911    0.87737619248700
O           1.68312330690919    0.36078464535678   -0.59670936641991
O          -0.50380039944984    0.88729540130340   -1.49382588039517
O           0.84253531025671    2.65803036810846   -0.54795813544118
H           1.50117974689022    2.75383873732866    0.19124126101430
O          -2.51267941670407   -1.56398211147729    0.08143357550106
H          -2.72849137285925   -0.54931227967921    0.14983095367417
H          -1.71551663918484   -1.69520567690186    0.74904234959427
O           1.18235054569222   -2.16669347744104   -0.73846106083675
H           1.97912793362758   -2.63865466430697   -0.98488190960806
H           1.42501978383712   -1.20057580868508   -0.72427476416449
O          -2.64240836945220    0.96300899284570    0.17330031744005
H          -1.77200657606143    1.07219170579477    0.62330116062430
H          -2.44750921641162    1.22471922128535   -0.73607261902988
O          -0.39190101640597   -1.62252468031101    1.43132797563738
H          -0.22244577608176   -0.65229472923015    1.37439288895512
H           0.24306573121759   -2.02986325459228    0.81644329451015
O          -1.14720650243527   -1.60000318799032   -2.01769338803239
H          -0.32175340529699   -2.03463968972635   -1.73390958145221
H          -2.04870261764019   -1.67010249817204   -0.86354847674930
H          -0.92572234026460   -0.63880815648404   -2.01840177335393
N           2.44900153253790    2.19866141118435    1.44813566587856
H           1.77159904708523    1.95501620598275    2.15998885064436
H           3.28732637750711    2.54542427052438    1.89670983492859
H           2.66808305257562    1.35020277540659    0.93540282552215
