    26
        -50.46217439  Gyration_radius:  2.47797150002 Dipole_moment: 5.224
 S           1.71261341831031    0.76643452517618    0.89265071927575
O           0.64005338442697    1.74744814156723    0.96471077528455
O           1.82643676999484   -0.10001922614797    2.03392001860232
O           1.66581083881771    0.05799067263156   -0.38788431229638
O           3.06447102784865    1.60925303485184    0.85857241302988
H           3.56231101083088    1.22273352694896    1.57171615899952
O          -1.77341130030590    0.95823216887521    1.63594793902319
H          -2.08674707981910    1.46480213065332    2.38618296803971
H          -0.86702339752698    1.28831709080184    1.43305285451887
O          -2.36216920464791    0.27436439679856   -0.97626522177495
H          -1.15736507399379    0.95486794938566   -1.38177920320661
H          -2.41619112951075    0.47945808162530   -0.02775851699053
O           1.15453136239312   -2.14858372065241   -1.87044823427838
H           1.42878874462842   -1.38403691179119   -1.33494635085374
H           1.58580133612774   -2.91233722861946   -1.48311539767456
O          -0.43750702015374   -1.50795533164393    1.57677341540615
H           0.43884674209611   -1.14746742159286    1.78830240538992
H          -1.06562647816276   -0.80333589857007    1.78794546544269
O          -1.39660839421751   -2.12478153654769   -0.88327485746667
H          -1.08281189748369   -2.08515531159468    0.04174590673833
H          -2.10276505816188   -0.69621386161327   -1.01649762600421
H          -0.58401382844489   -2.19155883083805   -1.41764000716206
N          -0.17786427941403    1.46653753206124   -1.55176410669155
H          -0.06259021198271    1.77810978155294   -2.50998371765631
H           0.59113642212638    0.80214866500266   -1.25321645268956
H          -0.09810670380309    2.23074758167172   -0.87694703499576
