    26
        -50.46277966  Gyration_radius:  2.44222247898 Dipole_moment: 2.175
 S           1.16138887068008    0.22304454913319    0.58888981348167
O          -0.04886759489039    0.67284764928532    1.26297866953015
O           1.28483775825442   -1.22876667086502    0.63659007174183
O           1.19809436859310    0.71571531093195   -0.78871595632028
O           2.39035405653918    0.85011016941288    1.30120501668133
H           2.29052042207026    0.49721414499667    2.22100355678572
O          -0.31351857056401    2.74992755085136   -1.35775381184398
H           0.31688293072984    2.06681345218788   -1.01370939776324
H           0.15836239408526    3.22829698961147   -2.04238702755848
O          -0.66635594306307   -2.34859823512275   -0.61343565093952
H           0.10778520503562   -1.95936099430098   -0.11689954830553
H          -0.60868715563725   -3.29763048983473   -0.49372333840261
O          -2.21453936338640   -0.23009115932655    0.15363295150881
H          -1.47168860935393    0.18257081408826    0.66862858729723
H          -1.89408293513730   -1.12382954488134   -0.06467194075527
O          -0.11859317763644   -0.62434336921454   -2.63725837122293
H          -0.34019615620202   -1.43063716091640   -2.13589022101364
H           0.54552936224044   -0.16447917140575   -2.07382811583744
O          -1.98195005712020    0.94597281556615   -2.03054261002318
H          -2.21088642104284    0.49027642664331   -1.08962106035719
H          -1.43655350184928    1.77836051940619   -1.79255411781534
H          -1.26893104844645    0.28425039392614   -2.43141771280034
N           1.48332557751321   -0.41069930108848    3.39210877841374
H           0.58766200891667    0.02399901726939    3.19543796354357
H           1.54888962758009   -0.60638608874883    4.38324683299192
H           1.50121793209481   -1.28457761760499    2.87868663898352
