    26
        -50.47063279  Gyration_radius:  2.42482478777 Dipole_moment: 5.298
 S          -0.49652397529809    0.97328014315267    1.72506402411876
O          -1.78499231615934    1.13980715804542    1.07266200034010
O          -0.17513018844491   -0.44884568125805    1.89458805837096
O           0.58009971057159    1.70189595244521    1.11007418689657
O          -0.68813876279175    1.55690650903825    3.18444848693479
H          -1.62148728387161    1.42956428739266    3.31502483272588
O           1.70428680286022   -1.71651327750584    0.61901038453827
H           1.04803140086256   -1.19181561822199    1.14669963771490
H           2.10565535277451   -2.33058502846284    1.23527983066440
O          -2.04826053456795   -1.43256704833793    0.34114855156340
H          -2.50666893431321   -0.58824449170322    0.24339332249878
H          -1.39778915903326   -1.23417618818092    1.04970353503300
O           0.48589962075174    0.46798464865067   -2.48342753001469
H           0.09010887875984   -0.84445730370371   -1.94670839829032
H          -0.14116727172352    1.15345671121625   -2.15328498368872
O          -0.94252774912245    2.29190752251748   -1.17007890394816
H          -1.37700753265217    1.88859802670462   -0.39420464599434
H          -0.21228010165087    2.79207787494134   -0.79369843814857
O           2.37464982796588    0.72054980044243   -0.64210548418082
H           2.47509632343686   -0.16181048581122   -0.26276298933379
H           1.31323591111039    0.63452269112402   -1.96874119198469
H           1.83249567287849    1.20651495807437    0.00759332270019
N          -0.11054846615211   -1.79624948472768   -1.42957991800261
H           0.67375536314803   -1.95461174191801   -0.77098715234490
H          -0.19656874714489   -2.56116060904999   -2.08897409570427
H          -0.98422385218330   -1.69602931488362   -0.84013645246016
