    26
        -50.47063276  Gyration_radius:  2.42475857065 Dipole_moment: 5.304
 S           1.30939316003404    1.42395787241610    0.65267372652419
O           1.06357055990134    2.01872763048913   -0.65092852244710
O           0.06722975423331    1.33258135483207    1.42934675734203
O           2.01544105364807    0.17177805012083    0.61153747426719
O           2.23035777014315    2.45981398931349    1.41801965272559
H           1.98169076649550    3.27607635998367    0.99814962606597
O          -0.15687237024842   -1.94265195655457   -1.68060611011988
H          -1.31861327141585   -1.24864837043088   -1.10066223365313
H           0.47419704758857   -1.27343461528847   -2.03546757435709
O          -1.61526427049723    1.86926866375256   -0.51261355011807
H          -0.92225328859848    2.13426550526263   -1.13081506363973
H          -1.12074995492563    1.79361173888083    0.33246171910764
O          -1.15844382833860   -0.88224424952552    2.02790930264126
H          -1.49961083560034   -0.78957801480869    2.91842803634595
H          -0.63022205154643   -0.06081365472203    1.85262242966191
O           1.68345840746611   -0.07885693440412   -2.16197487656135
H           1.43988359904242    0.75894195217325   -1.72361687389253
H           2.38592347358863   -0.43454138275242   -1.60956717075379
O           0.91502431730104   -2.28409468004157    0.71857262573335
H           0.28511475539345   -2.27594938669211   -0.86165338051056
H           1.45982518231833   -1.47454657588003    0.71331756775701
H           0.20228609236092   -2.09288552765674    1.34146606205586
N          -2.11111359996222   -0.73379773473132   -0.53465691799359
H          -3.03069359046571   -1.04750662902491   -0.82321785665664
H          -2.00513268945583    0.31239757672610   -0.65751825245690
H          -1.94442619844053   -0.93187098145273    0.46879341294144
