    26
        -50.46049370  Gyration_radius:  2.43422840712 Dipole_moment: 2.667
 S          -1.60499495235930   -0.01225299864567    0.93909354524461
O          -0.28924828832178   -0.31464813880238    1.47380092031694
O          -2.25998904762356    1.10938507910688    1.56571273619101
O          -1.58604797102616    0.06256758000410   -0.51422440504165
O          -2.51934457981055   -1.27517378083888    1.29981887994459
H          -3.28305264085831   -0.86022076120495    1.68783190238479
O           1.50020734463648    2.15974834644548   -0.77982794051609
H           0.76747445850263    2.55054553853411   -0.25371303384986
H           1.95875397580582    1.54944794088205   -0.17231588223860
O          -0.61995899134879    2.94547802544423    0.63121063285557
H          -1.20906215470585    3.58289521476953    0.22280165760085
H          -1.20019866506667    2.27585201654421    1.04987185906618
O           2.20357990398874    0.06436837711101    0.80224655344344
H           2.72060674267750    0.05333446307453    1.60865794988376
H           1.26488720518249   -0.06698719298476    1.08074787406691
O           1.73988225355725   -1.52272567459251   -1.40345520009996
H           1.01845893701823   -2.09318827953406   -1.01202647355049
H           2.16467119663581   -1.08985540010138   -0.64322477301574
O           0.32930953031302    0.40518752218035   -2.13038392677290
H           0.83531022597304    1.21283614703207   -1.67749047177010
H           0.95251505250600   -0.44094781586237   -1.94146139058527
H          -0.49229502878547    0.26406712674297   -1.54429491330408
N          -0.35837476087024   -2.62108869158816   -0.22074600246990
H          -0.45731514464153   -3.54769450707973    0.17479741768768
H          -1.17921670324840   -2.44050809018145   -0.78622456622279
H          -0.39655787813099   -1.95042203645935    0.54279706075262
