    26
        -50.46125514  Gyration_radius:  2.40980891207 Dipole_moment: 3.114
 S           0.42002058124171    0.58283011026643    0.83690120308019
O           1.25632667957458   -0.04937640128081   -0.18325485654179
O          -0.14753023849984    1.83406342687191    0.32511387463921
O          -0.62758032170575   -0.31642310684027    1.29462445788369
O           1.31621535974580    0.91300705160325    2.05132164746141
H           1.97928185569057    1.54190049814887    1.64015000304504
O           1.46757990025162   -2.71853858147339    0.23854173835790
H           1.78576290529157   -2.82555068042752    1.13580551421973
H           1.49505084423407   -1.76089839676675    0.05390883211833
O          -1.20174472114517   -2.41488280154553   -0.29180729785802
H          -1.01999608812304   -1.74956041027195    0.40105366232620
H          -0.40237361119160   -2.96421640310770   -0.27745395301937
O          -0.50365067542144   -0.62350556498031   -2.08479100002798
H          -0.85745027319654   -1.42188132680341   -1.60958559041147
H           0.30192643219667   -0.39429404461727   -1.57194838284954
O          -3.15869260997263   -0.22290727941531    0.46759444594423
H          -2.35212569559912   -0.20347317162849    1.02327902128840
H          -3.24053118589860   -1.13477029633830    0.16840462170276
O          -1.96387198343154    1.20788200390002   -1.27222033026718
H          -1.38775787472974    0.43003986248163   -1.76552236346086
H          -2.60550521871943    0.70769637603980   -0.64720165091492
H          -1.25530278642157    1.61417333986559   -0.62944326074105
N           2.65472803523367    2.40091279378889    0.42132704482699
H           3.43443862427981    3.04473940798825    0.37533002237565
H           1.80695869634595    2.87840781021092    0.13605880478388
H           2.80582339997009    1.64462580433129   -0.23618620795963
