    26
        -50.46125512  Gyration_radius:  2.40967190732 Dipole_moment: 3.117
 S           0.47933751358468    0.96809341406287    0.22442943891133
O           0.85030058930724    0.15281566957337   -0.93221350964358
O          -0.75557194652978    1.70884890741777   -0.05083018895310
O           0.34418363763826    0.15573079594288    1.42333874497228
O           1.61439670444642    1.98580372967916    0.47481357194013
H           1.61127551848967    2.49830191396384   -0.38642574607189
O           0.03711458082714   -2.49544407534994    1.06608284215478
H           0.87513613220206   -2.79436252079396    0.67988055731217
H           0.23236070007771   -1.57148170692671    1.31891177787398
O           2.40573382220071   -1.94034648776996   -0.19198483449998
H           3.14803313061159   -1.56888327288206    0.28644536160003
H           1.90616015136679   -1.18170031857015   -0.54798467323377
O          -1.16380911842294   -1.56973847168808   -1.08249369775255
H          -0.41042558174782   -0.96844335352464   -1.26993187432472
H          -0.82609685161833   -2.13397976499497   -0.33714068462304
O          -1.98122835803983   -0.68142358037749    2.41904033524211
H          -1.78994331953826   -1.62520369695106    2.44093384265458
H          -1.11220747088917   -0.24320450934279    2.30737037612625
O          -2.63157131238527    0.06384193870869    0.06924050281227
H          -2.55978908380310   -0.23835329080883    1.04727746103103
H          -1.96064685011381    0.85549548846357    0.00266901582891
H          -2.11782341847071   -0.70383282036519   -0.50060870784572
N           1.10288776058552    2.85689170419491   -1.90020870392355
H           1.38083343271803    3.55480671843592   -2.57862288453107
H           0.12285541371729    2.98110728853800   -1.67227810937187
H           1.19850421378813    1.93466029136465   -2.30971020368469
