    26
        -50.46400440  Gyration_radius:  2.43635703633 Dipole_moment: 6.314
 S           0.83342215232266   -1.23363206269315    1.69123962365394
O           1.62659940207419   -2.23371165138599    1.01388134656540
O           1.16830040214578    0.13030961900456    1.27486286144785
O          -0.58681717657108   -1.48863397459839    1.63949163394262
O           1.25624506653582   -1.28326704048589    3.22454614318694
H           1.10547018731152   -2.20022059031693    3.42744532568747
O           2.15384498273558    0.65916938035889   -1.05009984962688
H           1.84389354085395    0.41531955627693   -0.13393768176255
H           3.07446564885636    0.90638526950850   -0.95583492425538
O           0.58269609264284   -1.66801309864028   -1.32484686405524
H           1.26390687500587   -1.02251001107612   -1.55430871066483
H           0.87150034308932   -2.02787486415922   -0.45997851647324
O          -1.66479523102551   -0.42320664807160   -1.78136182090835
H          -2.12578914233639   -0.92412877754905   -2.45516708942960
H          -0.87527744837008   -0.97502100228645   -1.52443370873618
O          -0.72168543720111    1.96513790747070    1.12405660675334
H          -0.48153482165837    2.01563359955158   -0.29777173339109
H           0.00546149559877    1.35478674176339    1.38099328197504
O          -2.54516885991610    0.11033988487764    0.85951341879175
H          -2.49931774985093   -0.08707712582241   -0.08641423726863
H          -1.94589898465895   -0.54967885802671    1.26647045661594
H          -1.53578775279606    1.39239254349202    1.15696672353588
N          -0.25726197186431    1.85808804925108   -1.38238227974632
H          -0.87509203099891    1.08397370431278   -1.69642552007167
H           0.72702520873370    1.52853421071359   -1.42402127650364
H          -0.39840477066492    2.69690524853335   -1.93248319925951
