    26
        -50.46400452  Gyration_radius:  2.43662263705 Dipole_moment: 6.307
 S          -1.04615545684070   -1.99275596943621    0.11717781251574
O          -1.37047416065517   -2.27755735485916   -1.26193740969644
O           0.36889597804698   -1.66576161714355    0.30852508054566
O          -1.92034116361873   -1.01972148980933    0.72862767999612
O          -1.23865087517568   -3.35433698763516    0.91788816796018
H          -2.13950513631786   -3.56953311786175    0.70165823168847
O          -0.73534473256676    2.30163326513554   -0.53336551975378
H          -0.89137151211497    1.46394936846278   -1.05103152319834
H          -1.22618511990444    2.98607973935012   -0.98941518864974
O           1.07265300291000    0.12339652309359    2.11516633496835
H           1.55699344101769    0.94412269696627    1.03201427747776
H           0.83671712730108   -0.68256427222089    1.60320258170903
O           1.81888396030755   -0.64697726922644   -1.56651255958723
H           1.25430339267600   -1.11033459368643   -0.88719276843676
H           2.44212012688707   -1.30411064126349   -1.87866731762222
O          -0.84039327075139    0.17117536949428   -2.03585522907450
H           0.08307864746832   -0.01689415401181   -2.24848147471606
H          -1.20948824066965   -0.69747315187252   -1.77050539057083
O          -1.30448657483373    1.20774142621750    2.01776971731412
H          -1.67793340209130    0.37683366318441    1.65677930184869
H           0.19390626543484    0.55434542290326    2.29938618214429
H          -1.23239929516320    1.78484920342365    1.24462280470475
N           1.77886472549371    1.50264662021614    0.08835199320144
H           0.90114938283981    1.99492384369433   -0.16988171197179
H           1.97200591404061    0.77900060380686   -0.63154336618619
H           2.55315699628087    2.14732288308744    0.19321929338683
