    26
        -50.46277967  Gyration_radius:  2.44230124313 Dipole_moment: 2.175
 S           0.48933874751999    0.42531411061288    1.15066482403434
O           1.59274818043347    0.95105847367190    0.35633898450097
O          -0.78750725464607    0.96599064351626    0.70425226155756
O           0.46593632407048   -1.03780255578134    1.12836028528992
O           0.70883194792948    0.82757248976780    2.63415171232448
H           0.69095701451803    1.81613863314010    2.57836865054946
O          -1.35088434985097    0.32446867998354   -1.74641850986733
H          -0.45382737271896    0.40353684549589   -2.11815993746160
H          -1.26020807223279    0.63647688215353   -0.80731907614413
O           0.94388937180886   -2.26730751866694   -1.15342747479414
H           1.25801567731143   -1.51485131887259   -1.68798558904710
H           0.93753313574059   -1.92230475652097   -0.23097863039116
O           1.35767289648804    0.24064708654763   -2.10623924886513
H           2.04428161427893    0.66794371903215   -2.62036336645731
H           1.49003154570674    0.54146212002879   -1.16321244787399
O          -1.86519428435505   -2.18380179187413    1.12046015277029
H          -1.03390272348942   -1.66083836015913    1.25366646853282
H          -1.74007879455206   -3.00984837577686    1.59197680998863
O          -1.55102539952037   -2.13558392430320   -1.40744388748639
H          -0.51615339376033   -2.32448278311659   -1.39120649866693
H          -1.82989331738589   -2.21592338743257   -0.42630841884859
H          -1.58692170891125   -1.08649383546577   -1.61735370459719
N           0.53774296911998    3.26058597774970    1.72015531508344
H           1.28649536167455    3.07598962464010    1.06233221903241
H           0.49563146858480    4.25503780948915    1.90510729115493
H          -0.32350958376041    2.96701548213920    1.27058181568138
