    26
        -50.46347776  Gyration_radius:  2.43822298389 Dipole_moment: 5.958
 S          -1.29026110804841   -0.37337159979350   -0.18789844214207
O          -1.02393356156489    0.83358083149481    0.56867335178138
O          -0.34428887972555   -0.53008068343819   -1.30117500029655
O          -1.30598546299448   -1.56055295619793    0.65029828774393
O          -2.71486120909583   -0.24670297246057   -0.82497150596415
H          -2.62387193784091    0.42402410266544   -1.52513920206851
O          -0.18857716756670    3.03619159594954   -0.94140580130805
H          -0.63846727220086    2.82835328566613   -1.76593513681286
H          -0.59593508474044    2.45516846330174   -0.28352895977883
O          -1.58261284753660    1.24734799612462   -2.75969452050827
H          -1.66293083452985    1.00092364413461   -3.68340581203069
H          -0.92244769939377    0.64026118682335   -2.35961078503441
O          -0.11399846482322   -0.55042537036922    2.87104297829072
H          -0.66319024207211   -1.01378552659035    2.21491489367235
H          -0.33082050734674    0.37819585607279    2.74452546455545
O           2.34454107876893   -0.90173688648785    1.88227997828007
H           1.55357905144429   -0.80752144386437    2.46316594695782
H           1.76965755983211   -1.73083160169003    0.80235032604933
O           1.65847851872557    1.13851096274253    0.32468894289500
H           2.40063293959190   -0.04702288967919    1.41412782701873
H           1.71277608748500    1.97014492558484   -0.15687086043885
H           0.70269784790371    1.00449126713121    0.45085719182911
N           1.15337757071123   -2.22138096340493    0.02725948778039
H           0.20707497353954   -2.37508373993020    0.43412203708660
H           1.56983856060746   -3.07061445811574   -0.33916937991833
H           0.92952810089145   -1.52808299568384   -0.71950131766975
