    26
        -50.46277971  Gyration_radius:  2.44222265341 Dipole_moment: 2.174
 S          -0.13214659019283    0.56262579218605    1.18802243020035
O           0.80127420733840   -0.45842772966487    1.64763072462413
O           0.44211543832656    1.35712756783892    0.11071764010656
O          -1.40484377670504   -0.02778022658125    0.77140156664260
O          -0.46506400731467    1.50345105309756    2.37748211659889
H           0.42539557746938    1.88100115126624    2.58981539755562
O           1.32839107167707   -2.12496272425332   -0.24149159820255
H           2.00575337077339   -2.73240351246347    0.05949644809908
H           1.15528862288238   -1.50342697155027    0.52076737065956
O           0.99754572931864   -0.05419042696150   -1.99530852327477
H           0.83214980119324    0.59709324277874   -1.26328086124122
H           1.32068931939902   -0.85421173635650   -1.54292402568076
O          -1.35617067241641   -2.26709654074328   -0.61768514754683
H          -0.41627952598231   -2.50674305499846   -0.51894976623422
H          -1.49268841207817   -1.54814371776005    0.04145202535783
O          -2.60608212344678    1.06306576885749   -1.25705665012836
H          -2.13940523560412    0.80165206728001   -0.42265986074291
H          -3.54239579023416    0.93775960844359   -1.09006413806509
O          -1.33521788844397   -0.70314905553398   -2.58231664197713
H          -1.41906905702283   -1.46179886330432   -1.85818989057027
H          -1.89571630618841    0.06281560170975   -2.20012246558437
H          -0.31997265332902   -0.38608633365614   -2.46227064010075
N           2.08502678268901    2.03141217401181    2.32414302151405
H           2.29760604330564    1.04458377284739    2.41647115989032
H           2.86587259445141    2.57352066893329    2.67247426848238
H           1.96794349014050    2.21231243457642    1.33244604961939
