    26
        -50.46347777  Gyration_radius:  2.43817796897 Dipole_moment: 5.956
 S           0.25804961192542    1.13931543057180    0.69024377946244
O          -1.04469914629000    0.48581961529433    0.87614954808288
O           1.32193122797017    0.16718892042628    0.53779533220653
O           0.21094823993499    2.08637675278412   -0.41103930734994
O           0.53403684698038    1.96638858427878    1.99080042059859
H           0.36578868057184    1.35102326628132    2.72648570893226
O          -0.24480008630689   -0.77864356940258   -3.03001215278682
H           0.57849813242803   -0.24148371798533   -2.95559776610965
H          -1.18952502113042    0.10252278516331   -2.31202700084678
O           1.77198666594814    0.76593398982201   -2.19782472918373
H           2.28569877475476    0.23652558396539   -1.58037370894615
H           1.31217046515865    1.41047081419719   -1.63226016428178
O           1.07444735102306   -2.14398211350438    2.09615655561269
H           1.40807500040963   -1.37868016260769    1.60695987421407
H           0.58945120063645   -1.76965413317077    2.83778587766992
O          -0.53326833879467   -0.08529603738893    3.37283859391399
H          -0.88584633822173   -0.06362655533293    2.45646629066807
H          -1.27943615931538    0.04954598578583    3.96064735840699
O           0.08152103040619   -1.92661038258504   -0.65643120326500
H          -0.13623548563868   -1.47744187990001   -2.35709246787154
H           0.53661069486238   -1.15819587930442   -0.26944155727425
H           0.17097006311848   -2.60976757941716    0.01571342875311
N          -1.71710545013641    0.80054901210194   -1.63710519972507
H          -1.07957925832757    1.60527374882745   -1.46271761522844
H          -1.76243900184147    0.38250636705412   -0.68223224226365
H          -2.62724967998910    1.08394115403070   -1.98388764348356
