    26
        -50.45422549  Gyration_radius:  2.45326628005 Dipole_moment: 3.543
 S           1.74159576708801    0.45915305735199    0.32901203414673
O           1.40774684245061    1.05843783727080   -0.95961418264179
O           1.33003915782448    1.27861497573964    1.44522915170886
O           1.26479193903922   -0.90971880373862    0.40843835820593
O           3.32264424640709    0.36921863408545    0.39024567843371
H           3.57541432997449    1.26270091857335    0.59808114325684
O          -0.22725866504670   -3.16091829525043    0.65304288854592
H          -0.91260606352120   -2.76662809037626    1.20085926065394
H           0.52293670575218   -2.54819357471367    0.70429251395923
O          -0.31915580442902   -2.54257349716792   -1.92125093617310
H           0.57520366860504   -2.76334436912629   -2.18804583475487
H          -0.40440321205286   -2.85561959595658   -0.98623219896327
O          -2.18822100285102    0.67272090941534   -0.17730229531979
H          -1.80130318655878    1.58635538054687   -0.02232420762403
H          -1.89260883151882    0.15002763101651    0.60259054668317
O          -0.89999257465202   -0.47486635636546    1.86006936008606
H          -0.05936717008249   -0.62457832169065    1.37959510726684
H          -0.69577229884543    0.22588316457434    2.48378428832020
O          -0.63801960400819   -0.00446009742976   -1.97877914109020
H          -0.52659057594609   -1.02188107652517   -1.97506366091677
H          -1.40056600244926    0.25811602924313   -1.23097847587172
H           0.22880199044528    0.41844186529970   -1.63131387824429
N          -0.72353177314728    2.81909135408213    0.22364448207311
H          -0.97801930230050    3.66112705229960    0.72451095184288
H          -0.33242547279316    3.09324797373669   -0.66954074098295
H           0.03066691261510    2.35964528510200    0.73704978739804
