    26
        -50.45892980  Gyration_radius:  2.45691299629 Dipole_moment: 2.269
 S           0.96074158379612    0.49560509423164    0.84786492398393
O           0.98213760298583    0.48833697032419   -0.61822384929446
O          -0.11310591454914    1.37554475596668    1.32616889463616
O           0.83434085128254   -0.84407857832706    1.38907953385204
O           2.30657095273094    1.07598739575773    1.34236947711155
H           2.30324559267599    1.98564274165663    0.93065003151936
O          -1.42675983220849    0.09609690797232   -1.61503651812992
H          -0.49773642737494    0.32408496015728   -1.37127671851536
H          -1.40692213062773   -0.88158767398551   -1.80127067388846
O           1.41514990714311   -2.13288455409221   -0.98304780290340
H           1.41280250367670   -2.30901864162240   -0.03568976003955
H           1.40711409754102   -1.15873973783257   -1.02774273334288
O          -1.03593331714771   -2.47482407415155   -1.95873437015557
H          -0.95663858652594   -2.82114894130041   -2.84862485857297
H          -0.12230793714214   -2.47425540316004   -1.58049140916952
O          -1.58257283031645   -1.76149778381756    1.78166533919907
H          -0.63176803538972   -1.52500895358676    1.64854369938954
H          -1.70194865527381   -1.87167391611133    2.72658586292924
O          -2.32257806065748    0.40919826679396    0.65979380107638
H          -2.05822104394322    0.26666647733308   -0.40688119436326
H          -2.22169911442972   -0.50585014007322    1.09443784231039
H          -1.48781833843945    0.91874651337867    1.00190889428330
N           1.67017704729424    3.21713924018527    0.02610693514899
H           0.77287314819955    3.24017738505077    0.49763003215736
H           1.53969523561478    2.70462515578723   -0.83830430170651
H           1.96116170109380    4.16271652346439   -0.18748106751497
