    26
        -50.45760681  Gyration_radius:  2.49511032275 Dipole_moment: 2.747
 S           0.23082379930725    0.46924956472873    1.32262401736514
O          -1.04148157253763   -0.23011804612931    1.07204220567204
O           1.35197220526324   -0.43298199749903    1.14425631110200
O           0.33648616732141    1.65623954910294    0.48271880640946
O           0.20034539908201    0.96104322389796    2.79131596081107
H           0.14904806510593    0.09809966675352    3.28503582284649
O          -0.91657306648987   -1.62311816445560   -2.37460459919963
H           0.02042494211709   -1.43663447670744   -2.05905170255398
H          -1.09909084226347   -2.53563100808385   -2.14545907577637
O           1.72717801272702    1.63229251327803   -1.77643337783736
H           2.60508028099368    2.00574942505076   -1.68881825999456
H           1.32186929603194    1.67376625510328   -0.88248969144282
O           1.42463148593136   -1.06545466467006   -1.43850706283302
H           1.43954089025181   -0.95718761373880   -0.46439565280509
H           1.64946711672823   -0.18340260583824   -1.78424335061243
O          -1.13421672475680    2.29476070906130   -1.61766777278507
H          -0.42214517240962    2.19372845257784   -2.26049501098298
H          -0.68061601884802    2.29637661577863   -0.74740288436748
O          -2.23984306547280    0.07981887731807   -1.06430597225106
H          -1.77002859289423   -0.63146181767978   -1.65714000595831
H          -1.79134273855051   -0.04286499835542   -0.10687474559028
H          -1.90667217831418    1.00243412459464   -1.38346040862754
N           0.12878503289441   -1.55834012801433    3.43101904631854
H           0.39521689475939   -2.18522052528189    4.17959413065226
H           0.79633195362773   -1.64138683227115    2.66942041941054
H          -0.77519156961524   -1.83975610852824    3.07332284301888
