    26
        -50.45892963  Gyration_radius:  2.4568136314 Dipole_moment: 2.260
 S           0.04880947068630    1.01257817863875    0.92824566183844
O           1.17958409342491    0.34676065635120    0.27389388412321
O          -0.72423861940755    1.77165615747138   -0.06283048993809
O          -0.78581086861826    0.06921487347469    1.64749113794915
O           0.61698069367377    2.01678423603004    1.95848698501162
H           1.16587937180043    2.61800188723991    1.38029484835398
O           1.03561797114748   -2.00376251098546    1.55679157790869
H           1.31778245616861   -1.18089685557088    1.11604008291263
H           0.26506145282882   -1.72688829643626    2.06489731414588
O           0.24142353060704   -3.24661002719177   -0.65705254214444
H           0.87758638966674   -3.93463612946377   -0.85718979054561
H           0.49360685974044   -2.88683173637688    0.22882608689002
O           0.41307490954385   -0.94086947991522   -1.89581578054312
H           0.83568659001523   -0.44176265779032   -1.15651202297935
H           0.31401828546346   -1.86929811534390   -1.55064231346948
O          -2.75212426525214   -1.04709758851112    0.33388012396992
H          -3.57323654745033   -0.74162067210076    0.72340386682986
H          -2.02715372299037   -0.70631691003058    0.91340500485859
O          -1.77296646787846    0.17771609657451   -1.68084117001036
H          -1.40840290807869    0.94627591060641   -1.08899574612868
H          -0.83939709929093   -0.37477865054852   -1.90500139962969
H          -2.28157213244037   -0.39876857019503   -1.01343123092879
N           1.80324281644229    3.14369821422794   -0.05256208989829
H           0.91994824921180    3.20250891389673   -0.54673530624192
H           2.24402563144131    2.27505526758585   -0.33222703954793
H           2.39257383951408    3.91988780834817   -0.32581964277615
