    26
        -50.45822184  Gyration_radius:  2.51230378176 Dipole_moment: 2.953
 S           0.88889485672559    0.58488356741261   -0.45336812342031
O           1.21754043742267   -0.08196444740858   -1.70256067242180
O          -0.56211403134124    0.74321033435517   -0.30514545980934
O           1.45077696492193   -0.10433286962889    0.70456131933900
O           1.51027207711931    2.00787076084727   -0.46381583636894
H           1.11395908213014    2.41755409140287   -1.28292818917744
O          -1.74343093956173   -1.37404042913717    0.69859345951012
H          -1.94374594868200   -1.06681528323685    1.62685365084564
H          -1.42737752408675   -0.56396302594990    0.22205880819178
O           1.08395468284007   -2.68811789031270   -1.63081542525902
H           1.10585478210556   -1.70661042129812   -1.76261622459182
H           1.96157727783176   -3.00412492464738   -1.85441777440828
O          -1.99417931474086   -0.29766362786026    3.07289874862166
H          -1.32140454022022    0.40590538315017    2.90280222703874
H          -2.80437291198520    0.15644103695808    3.30869197694727
O          -0.24888623940505    1.52344107168583    2.22945132802548
H          -0.47671210587293    1.42368443559045    1.28659799424347
H           0.65433650648871    1.19411213501200    2.28249463967787
O           0.46629139365429   -2.43396745289353    0.84175686181975
H           0.67744077771273   -2.72573715029414   -0.10727797371171
H           0.96701642170440   -1.55191639717255    0.92831294046292
H          -0.61823454365852   -2.06026940244607    0.80957317269974
N           0.17382682904909    2.41014506570469   -2.65774313831539
H           0.44910263146535    1.45521933197744   -2.86787351706041
H           0.19897393133883    2.95867042733264   -3.50815780841306
H          -0.77936056293373    2.37838569086234   -2.31792696441497
