    26
        -50.46302231  Gyration_radius:  2.50676147003 Dipole_moment: 2.703
 S           0.34581166563637    1.23263415904215   -1.60173459869664
O          -0.32596574699219    1.79547984200716   -0.43191008547464
O           1.64619206092898    0.68406991295957   -1.26393203071080
O          -0.50485123844294    0.34218961425102   -2.35680857689920
O           0.64884508101315    2.46743515429445   -2.55620880068694
H          -0.19316766249436    2.62065999587846   -2.97246444201928
O           1.26846908567162   -1.66543800778150    0.05496944732562
H           0.48651216089736   -2.02843872537615   -0.38665718693611
H           1.53346889972438   -0.90595902925244   -0.49152586166308
O           0.89714738861438   -0.42066466887366    2.38464554124560
H           1.46246394190897    0.78889305447829    1.80839037961440
H           1.07259304892696   -1.05616200420626    1.65283314941560
O          -1.00861223503140   -2.05890937851961   -1.48152492336187
H          -1.20200941663161   -2.59082787485040   -2.25522943172967
H          -0.85493325096728   -1.14067853593916   -1.81657804400311
O          -2.70260173124335   -1.79753743905562    0.64056019764373
H          -2.15950565885300   -1.90369176826124   -0.16332145502992
H          -2.51511549010158   -2.55503197031659    1.19756615478602
O          -1.48852094415004    0.41526777357726    1.66831392487490
H          -2.05174784333111   -0.31243958417410    1.34047306771606
H          -0.06223131610810   -0.18214892783215    2.28884181907552
H          -1.26154108207496    0.94826547347577    0.89070810632249
N           1.72097296900412    1.65781091396879    1.15784149657824
H           2.23779486360504    2.38989746685281    1.63078270259721
H           0.81277542598015    1.98253808692054    0.74684334638964
H           2.19775701447758    1.29278647673072    0.31512610362978
