    26
        -50.46302194  Gyration_radius:  2.50682435658 Dipole_moment: 2.707
 S           0.05379093065004    1.89165175236480   -0.79055280231229
O          -0.49151206434103    0.81412785878106   -1.61410354566428
O          -0.66596622573925    2.02948111140504    0.46199037618418
O           1.48976168046871    1.81465607237923   -0.65376266202446
O          -0.24255088151126    3.23260877692185   -1.59151760057059
H           0.43517616766490    3.23189435715097   -2.25967910485894
O           0.05268698279334   -0.02516982124046    2.09484014033916
H          -0.20036297626144    0.80363689301627    1.65357161540230
H           0.98703828348009   -0.14992134023157    1.87180326577757
O           2.56706612539250    0.04317551585734    0.92271228280975
H           3.41272066756561    0.40488810227233    1.19286957999458
H           2.17948498926988    0.70268811902173    0.29507219726591
O          -1.70929673440429   -1.67778575275321    0.96399836932720
H          -1.06406943578711   -1.21438239115079    1.54640520232247
H          -2.36976942805285   -0.53280797744261    0.35810971469314
O           2.27343197030229   -2.38990337972500   -0.27536486883640
H           2.23611639373278   -3.01604112971988    0.44967259328106
H           2.45045871313663   -1.51626635217869    0.12181522867056
O          -0.24376878298834   -1.91286336558261   -1.20376132373232
H          -1.17864288545952   -1.96272198688548    0.17421281263161
H          -0.21963098860192   -0.98984385634978   -1.49997989345706
H           0.68069887298944   -2.15451177430561   -1.00074958396460
N          -2.61586809075175    0.41495842195073   -0.17710002397660
H          -1.98131122536060    0.44081483842626   -1.01115994058906
H          -2.23887762306326    1.20104207014827    0.38029304205162
H          -3.59680444513926    0.51659521788106   -0.40963506075503
