    26
        -50.45813886  Gyration_radius:  2.47521823611 Dipole_moment: 3.007
 S          -0.16540951173841    1.35439655805968    0.07548626071815
O           0.20574866195090    0.66360168772810    1.30491272949113
O           0.93841399867971    1.38036870160750   -0.87163675318739
O          -1.36513582023610    0.75105057880439   -0.51794641606483
O          -0.55849979909418    2.81150415363094    0.43559602315611
H           0.29032929600317    3.17493242416810    0.79956401768257
O          -1.93032102403204   -2.88015260499228   -0.51290205053701
H          -2.82997243880316   -3.18763287264928   -0.63804434999137
H          -1.94920416279526   -2.28312977918618    0.28263213624829
O           1.21245017956545   -1.67526034076318    0.67530845299818
H           1.94710095808868   -1.85532957439568    1.26311645434387
H           0.83727784053610   -0.80642201139249    0.95311033316656
O           1.33070277558421   -0.99790585792679   -1.88407640746807
H           1.32747826925526   -0.03825121064984   -1.64367171735810
H           1.42050526570848   -1.45366914755995   -1.01597200642545
O          -2.08891933281187   -1.01963585989237    1.33687240476798
H          -1.34588741645006   -0.90449092595467    1.93642682808905
H          -1.99847443187104   -0.27517942626535    0.70956494426023
O          -1.11981143022939   -1.13663884147051   -2.17877471996616
H          -0.02815251935842   -1.16363358418513   -2.17477658794481
H          -1.43557266264188   -1.91904922825626   -1.58506001244177
H          -1.30412752073626   -0.30271239935904   -1.61608873345350
N           1.92104129445864    3.06935305692865    1.20098765135411
H           2.12054509602400    2.57218228272189    0.33823292479546
H           1.90797679313347    2.38426378486512    1.94635399071983
H           2.65991762179571    3.73744043636434    1.38078463305030
