    26
        -50.46154421  Gyration_radius:  2.43330532761 Dipole_moment: 1.433
 S           1.42562103379830   -0.17218322622051    1.58755002219693
O           2.12374606518726   -1.17845960002108    0.81519159232754
O           1.67458011451180    1.17416914564600    1.07949260311121
O           0.00490734543866   -0.43386980149916    1.72893990326739
O           2.02690509242061   -0.22848602378387    3.04720041185120
H           2.95951579293221   -0.34422883450028    2.89680800185469
O          -2.10556380295095    1.06279340773964    1.05217461485526
H          -1.49737587771332    0.48721542021184    1.55350398467683
H          -2.54366648087971    0.46467811273082    0.37901760406104
O           0.05954006691008    0.28101870455771   -2.01210306134330
H           1.04603821664427    0.26906495300029   -2.02634005469305
H          -0.18330361314873   -0.55094301078198   -1.54866400228180
O           2.63703636241997    0.21382868909548   -1.39506501746929
H           2.83360230620806    1.06431378127627   -0.99325611575560
H           2.54853205022043   -0.40162939844859   -0.63947024490527
O          -0.29275402757910   -1.88477424256402   -0.45016107436754
H           0.54529061292100   -2.35286599749850   -0.50792308733099
H          -0.25531696106212   -1.43470945946809    0.42008138845221
O          -0.26866100977586    2.06643332775845   -0.27469161086344
H          -0.19726510379376    1.39039934662196   -1.07966053982276
H          -1.13186979776367    1.74550382818673    0.29871434450439
H           0.53230469670418    1.82885647450582    0.31073792264833
N          -2.95231218502488   -0.58304717393938   -0.86243358595679
H          -3.88279826926285   -0.97839960213996   -0.82604786812231
H          -2.28308704707909   -1.34165922908680   -0.77867172093935
H          -2.82364558031072   -0.16301958137273   -1.77492442996706
