    26
        -50.46154443  Gyration_radius:  2.43338508352 Dipole_moment: 1.428
 S           1.30492919426255    1.35229526069587   -1.02496168944222
O           1.83871901209755    0.23050258688116   -1.76862255394343
O          -0.01282986617200    1.75113159744047   -1.51207299983813
O           1.30174226357527    1.14522812716440    0.41160724763221
O           2.27679061623938    2.56967714620483   -1.28765628654212
H           2.47527182417297    2.49669448403307   -2.21559563383647
O          -0.71570212216595    1.21111784230152    2.16672451496971
H           0.15111027542473    1.35633715358384    1.74260804317660
H          -0.69122547060981    0.26953960111193    2.50648855969354
O          -1.32099101244357   -1.45410526284526   -0.52059874677425
H          -0.44260458810809   -1.59027016515905   -0.10126033352047
H          -1.11634282709597   -1.35458651298093   -1.48066668498128
O          -0.39775886538294   -0.68646809392240   -2.88423715612786
H          -0.82501245931746    0.15317595122242   -3.07360497816367
H           0.49771700582321   -0.44337825961503   -2.57358814868124
O           1.21842221735991   -1.48800194032201    0.37603673474304
H           1.73854446253478   -1.70512055729178   -0.40308943246371
H           1.33963953594191   -0.52090125282309    0.48230886925497
O          -1.87835743426860    0.94109414441856   -0.00557792531442
H          -1.75880766065858   -0.09112251695168   -0.18109151984994
H          -1.48162880827036    1.11465648183007    0.98864135359184
H          -1.19950171329888    1.37218898327194   -0.63338413254934
N          -0.60849814836175   -1.38746991317423    2.74004928947268
H          -1.42351337609505   -1.86589005332887    2.37609775394648
H          -0.45970325673563   -1.69821586680739    3.69125957983561
H           0.18959121158044   -1.67810894492030    2.18418627576539
