    26
        -50.46154446  Gyration_radius:  2.43327521918 Dipole_moment: 1.423
 S           2.12180841466195    0.23352628483950   -0.15945357110403
O           1.92348582433894    1.65550222286085   -0.34673264895059
O           1.94901320318350   -0.16126500095305    1.23591875216632
O           1.31762288651736   -0.58488863204211   -1.04833016624848
O           3.62692658433232   -0.06434411717084   -0.53546975173832
H           4.09872831728003    0.66828885823021   -0.15278630482133
O          -0.61693752370308    1.15645934227759   -1.45718886188881
H           0.09812033458811    0.48606444174662   -1.43334182458615
H          -0.15033995257443    1.99717666602876   -1.44258057134482
O           0.60681468379616    2.23482138205368    1.89324828568688
H           1.10603431917114    2.17533756897276    1.05373464595344
H           1.07978878297521    1.65702450351536    2.49809315076969
O          -1.50140040548437    0.85505747548619    1.06878093226904
H          -1.33501537090803    0.96916885403223    0.10685675333630
H          -0.88713781995671    1.49760288504108    1.49702181668665
O          -0.47811939775765   -2.48922970321584   -0.49782048324605
H           0.26910455907185   -2.00506465965402   -0.89732196712134
H          -1.30206296751088   -2.08201012989660   -0.89517577796282
O          -0.28935307345035   -1.26755543396791    1.65045917239391
H          -0.40969615979612   -1.90667486660086    0.78258192245688
H           0.66010097447721   -0.90250272881036    1.57259157674821
H          -0.89534083120229   -0.42519785915045    1.46675845688711
N          -2.56595026555150   -1.10950179200319   -1.40891956830444
H          -3.14752960301350   -1.48453300298617   -2.14695324850923
H          -2.11038071609109   -0.27298030057257   -1.75982999022777
H          -3.16828479740716   -0.83028222806870   -0.64414072930830
