    26
        -50.47166724  Gyration_radius:  2.38841922735 Dipole_moment: 3.166
 S           1.39933226449973   -0.05523505376982   -0.23651512849912
O           0.67652366360011   -1.31531030252202   -0.09929703077236
O           0.55379762325526    0.97529677154507   -0.84557674079430
O           1.92485755422828    0.40137260749463    1.04077419960274
O           2.60047533642720   -0.30227755189062   -1.18712829865204
H           2.16573534583063   -0.43250932916119   -2.06699834326516
O          -0.97848553573276   -2.01032566926261   -1.99692344417807
H          -0.37666880855227   -1.82028315266577   -1.23948205985457
H          -1.04791828135798   -2.96456632308475   -2.05110505070001
O           0.90552719852523   -0.37218441034333   -3.17272822457214
H           0.22240839412373   -1.05002338638032   -3.01823516156155
H           0.57904903874607    0.41395465316368   -2.71324357155338
O          -2.01398620160882    0.26818935134014   -0.52920151066690
H          -1.10188139644722    0.56377259383597   -0.71175609316524
H          -2.10018512397709   -0.56541910164279   -1.00573788982834
O           0.01673184548096   -1.26575638826391    2.47407206634042
H           0.21592585980605   -1.43333366256425    1.53139024576395
H           0.84216663047078   -0.93668664224410    2.83764887887439
O          -1.78617716031757    0.65430486662689    2.10007805402480
H          -1.26182415164370   -0.13487279851441    2.37373007919245
H          -0.74058783567007    1.63327461555023    1.83297383783164
H          -2.09186860894328    0.45559819522145    1.18539945066440
N           0.13564028509546    2.22809782673604    1.48632952357849
H           0.96417780067562    1.56116977713050    1.47256145460817
H           0.30601599483964    3.05943305055532    2.04215404281935
H          -0.00878172135334    2.44431946315864    0.49681670475593
