    26
        -50.46154430  Gyration_radius:  2.4332710181 Dipole_moment: 1.427
 S          -0.82885959167980    0.85524444928120    1.77856186472156
O          -1.98374015787498    0.19742425724351    1.17325527314350
O          -0.03135505015314   -0.06552278582458    2.56119338860771
O          -0.05994989383302    1.59387399188575    0.79377063780143
O          -1.39316647830118    1.93146550447290    2.78777380215897
H          -1.63383737897019    1.41404385507884    3.54943155067392
O           1.88911853300885   -0.15445497251597    0.50066812478329
H           1.25729244927181    0.58681803335267    0.61292662666835
H           1.97648006986861   -0.52379689321526    1.38422924009833
O           0.23977904781125   -1.86657110399611   -0.76518888478711
H          -0.14530897725431   -2.29063406261674    0.03824486659359
H           0.95141801585663   -1.28753466075032   -0.41266375289030
O          -0.34831060182475    1.75817270968018   -1.86019337850633
H           0.52516781488002    1.37254118873307   -2.16159809365852
H          -0.21603160217064    1.99880988073742   -0.92368486229984
O          -0.90080653200014   -2.37932526302501    1.57235897454095
H          -0.51616716671163   -1.61506515644223    2.04719830601994
H          -1.82955312594013   -2.15654705251122    1.46647345927095
O          -1.63727609972513   -0.28011290856223   -1.28781142819687
H          -0.86752236111340   -0.99210114342371   -1.18258455715163
H          -1.90129946725536   -0.06735732274963   -0.32550550451803
H          -1.15174554951214    0.62137660788697   -1.64477802054115
N           1.92648164603259    0.49025950924609   -2.41837582008471
H           2.30114454280436    0.34151408197865   -1.48671178305280
H           2.64110949361057    0.93771077795465   -2.97755121738301
H           1.73693841110298   -0.42023154186210   -2.81943880192062
