    26
        -50.47166719  Gyration_radius:  2.38838797299 Dipole_moment: 3.164
 S          -0.38159217434080    1.22553245461795    0.60860141862319
O          -0.79929658693420   -0.06939275295325    1.15331021470227
O           0.94661655269469    1.14091822523180    0.01054499482699
O          -1.36465324802726    1.72394669126825   -0.34080067643118
O          -0.30383876909856    2.23021499159062    1.78848089709741
H           0.23808078411477    1.74456574977279    2.45968599453788
O           2.73681265002315   -0.36973152954149    1.16669812824783
H           2.12041715243198    0.21823413411129    0.67040106748846
H           3.61939931954585   -0.03772567384714    0.99605215463391
O           0.34990378738302    0.98561539580053   -2.57417052153041
H           0.71562267349269    1.06783932270238   -1.67092035197895
H          -0.34811089068309    1.64391811368395   -2.60989064607647
O           0.97735139739163    0.40417383132469    3.14704317174548
H           1.77282679470054    0.11105702748060    2.66615035741452
H           0.26075236238543   -0.13786512471762    2.78872173257677
O           0.64931599041157   -1.99575822864367   -0.02309041556368
H           0.11727858823893   -1.34260249332153    0.46983654583310
H           1.56129763197781   -1.80287279264234    0.22290144282496
O          -0.58048702586516   -1.49522254310491   -2.33633518631999
H          -0.15732259732241   -0.64695871085810   -2.60827491043695
H          -0.01474461079302   -1.84366175666338   -1.60965991825477
H          -1.73669420839244   -1.02743286172398   -1.58295533731828
N          -2.46867785668449   -0.56155244037704   -0.88375409430657
H          -2.17516527584947    0.45497359574160   -0.77580275034109
H          -2.30146615387821   -0.95428262944508    0.04616554161902
H          -3.43362628688919   -0.66592999549658   -1.17893884360809
