    26
        -50.46961818  Gyration_radius:  2.44250110391 Dipole_moment: 5.993
 S           1.87285243081258    0.37840142060485    0.32489251993532
O           1.70409742777089    0.56469230213918    1.75414815125159
O           1.74810205428662   -1.01596088550191   -0.06258808118078
O           1.01005380400584    1.25955408276829   -0.44567949108843
O           3.34971478352592    0.80560133862000   -0.02728862713750
H           3.84611169362312    0.12919680152317    0.41960056030978
O          -0.77402043567535   -1.59577003147843    0.67288736619519
H           0.15846975255223   -1.46770414735599    0.41847634958270
H          -0.86890057876681   -1.18188575062673    1.53947129195941
O          -2.38100741422893   -0.15288964107373   -0.92462962389180
H          -1.95595441820877    0.96427803245448   -0.07475336440655
H          -1.95524321657619   -0.87880843188181   -0.42030044947461
O           0.77729842318338   -2.11850055566495   -2.33085711494449
H           1.26603254622229   -1.76979989376950   -1.56333644056137
H           0.16174219739018   -2.76254342362394   -1.97393149538363
O          -0.65067822043023    0.32031841861261    2.78454707423229
H          -0.59352381319081    0.34210119778050    3.74074120006822
H           0.28169152503700    0.40260777084353    2.44953401261780
O          -0.41930220345691    0.30254639271423   -2.60556594941416
H          -0.01301471755299   -0.57475668111803   -2.74914608999408
H          -1.78062389619694   -0.00433022843855   -1.70425676875712
H           0.17773845595116    0.75322287393945   -1.98721936964026
N          -1.39876586689840    1.68761647052170    0.55447345464496
H          -0.41995219284720    1.67162504334153    0.17026762998836
H          -1.34893994942827    1.32116922221430    1.51973008487019
H          -1.79397815090065    2.62001830245461    0.52078316022059
