    26
        -50.46961824  Gyration_radius:  2.44254429621 Dipole_moment: 5.989
 S           1.53220453577701   -0.21562463060462    1.16666701650112
O           0.74027933894263   -0.28335427879094    2.38085199776713
O           1.40022012859035   -1.41682327010593    0.36066764027094
O           1.27458603024502    1.00209727636345    0.41470537150965
O           3.04576304551346   -0.13977779665747    1.60379423620613
H           3.16804353742604   -1.00146652205297    1.98620724119468
O          -1.82880716183267   -0.08241637659708    2.22102366484365
H          -2.22579490985786   -0.27076681758957    3.07247685757769
H          -0.84800987154708   -0.18986276708872    2.34288650559672
O          -1.22625412400119   -1.42831122702769   -0.22262392517991
H          -1.65455051889627   -1.18728538479181    0.60789749254342
H          -0.27643480983689   -1.50881983117027   -0.01777352463713
O           1.45836676137050   -1.73506126091139   -2.32229352379370
H           1.57418600626416   -1.69337378510837   -1.35564432397218
H           0.65975187177399   -2.24787496002604   -2.46484993641693
O          -1.65907876145422    0.68492023866912   -1.82369587602566
H          -1.52321291200769    1.45116727088609   -0.58057151095272
H          -1.63359669679194   -0.21495233023861   -1.43363153035771
O           0.90565600906405    0.92273700397525   -2.32038548451774
H           1.20083710799606    1.06107967589527   -1.40623225703880
H           1.19639990627856    0.01612891804365   -2.54132617145558
H          -0.74800341726736    0.81980009450923   -2.20072434692680
N          -1.22692296165112    1.85530752971148    0.40868663871636
H          -0.19723913788120    1.65316906247986    0.47808081363615
H          -1.69233780023032    1.30262169236587    1.14786830928235
H          -1.41605120599122    2.84674247586289    0.49793863563477
