    26
        -50.46206285  Gyration_radius:  2.4075129361 Dipole_moment: 2.090
 S          -1.70300144535756    0.55290271888275   -0.18462868987013
O          -0.81796271533857    1.44618896044892    0.55620202999262
O          -1.33621153788707    0.49164847085167   -1.58890836318985
O          -1.80036270526810   -0.75172542232293    0.43406779585101
O          -3.14497735583867    1.19067508566026   -0.12942173616764
H          -3.05575322879124    1.92186257180277   -0.73083147250190
O          -0.34953826826361   -2.10265156105298   -1.26985919087153
H          -0.94497384830902   -1.71178779205724   -0.58940890458873
H          -0.65469988798823   -1.71910688318823   -2.09800889421717
O           1.23094832985186    2.93771008120540   -0.30020090561444
H           0.40803288794819    2.54436049883238    0.05069400115735
H           1.89071926332935    2.81909433512091    0.38651346996184
O           1.26242162210416    0.06062850666844    1.42260840084385
H           0.48696961423614    0.62116394871972    1.19646012258117
H           0.87520281924325   -0.70547310364734    1.93112865215437
O           1.85208621895889   -0.88380266101232   -0.80362095621742
H           1.05817702206561   -1.49961621470183   -0.98655797356081
H           1.69108779941897   -0.49613849656865    0.18350904679302
O           1.16459578769258    1.06598481896824   -2.19392923852832
H           0.19590358974063    0.90817767355180   -2.11904703100804
H           1.32790383200184    1.87009924955260   -1.65049168284184
H           1.68262408658861   -0.05392491028886   -1.45304835805702
N          -0.11678247628914   -1.95802137781435    2.45140333916898
H          -0.91501444176891   -1.66568252456012    1.88967824951298
H          -0.40908585118547   -1.98018677909045    3.41978732516777
H           0.12169088910354   -2.90237918397639    2.17591097404626
