    26
        -50.46206282  Gyration_radius:  2.40738772485 Dipole_moment: 2.084
 S          -1.14693055628539    1.38436775916991    0.09730084214499
O           0.09925214397794    2.12984871871000    0.05538832436978
O          -1.28696399629319    0.51932871397179   -1.06979090482707
O          -1.33336581825651    0.66013706035262    1.33625149524258
O          -2.30602943337460    2.45160698005055    0.01562898855590
H          -1.99895966643996    3.01598692123259   -0.68553015218678
O          -0.16485502849286   -1.81771604607011   -0.54164569263726
H          -0.66143616470980   -1.00401012535682   -0.78216059448895
H          -0.59734611154605   -2.13262146290027    0.30054078312412
O           0.33155150197520    0.19728408392756   -3.17500870559514
H           0.32117325863771   -0.75182132012594   -3.31639125304851
H          -0.37251962733273    0.37659897552895   -2.52141280264601
O           1.15986275765580    0.57150484269762    2.11706927850791
H           1.44392462208076    1.46163640970418    1.88688661057929
H           0.18914020190985    0.57765541721475    1.94970364047018
O           2.01853782078323   -0.86533392510435    0.18111366486853
H           1.76131726377012   -0.38361808493530    1.04414919669855
H           1.12578540682036   -1.36101494738007   -0.14626337080440
O           2.06470319679233    1.09085273334617   -1.36091434334666
H           1.39962911947049    1.62419966363751   -0.86875356623848
H           2.16132813653716   -0.07143828955679   -0.51800227842656
H           1.60021378379662    0.81177223740573   -2.18248191586290
N          -1.32668563135892   -2.19145705942115    1.81321638802852
H          -2.19622059972489   -2.69815094407448    1.91761699021630
H          -1.53941168907836   -1.19530156593507    1.83809874641195
H          -0.74569490130469   -2.40029673608191    2.61539062091112
