    26
        -50.45821501  Gyration_radius:  2.53325233092 Dipole_moment: 2.223
 S           0.79865796072041    0.43667292436630    0.70585547690768
O           0.18975476474277    0.92121862472723   -0.54159164178977
O           0.26614923682681    1.13280291939206    1.85983530583678
O           0.65227889249954   -1.01193854015550    0.80880974202082
O           2.32292946845327    0.71513326061334    0.60436598821327
H           2.34460940571446    1.70692394093464    0.53614017928607
O          -2.22441545039025    0.42117891168129    2.38181642931495
H          -2.26787035897650    0.29599697312705    3.33143075473835
H          -1.31977570826209    0.76236800893199    2.19775903292466
O           1.58074525630087   -2.29032681034562   -1.28627135720447
H           1.77071104886290   -3.17216761866716   -0.96079447309470
H           1.31780386307756   -1.76408876341278   -0.49643710310434
O          -0.39339696439349   -1.88487129422805   -2.97185647664406
H          -0.01217890712451   -1.38445870522456   -3.69582710628047
H           0.36186428935267   -2.11097475791990   -2.36837850193415
O          -1.92211425368586   -1.63094948030813    0.73613179488828
H          -0.94944748950182   -1.61942272082997    0.86708211360558
H          -2.25241791766246   -0.95524731395658    1.37374183526515
O          -1.74346222609231   -0.38158127597638   -1.41212318332378
H          -1.29505515313035   -1.01194153619560   -2.08630540496105
H          -1.95666182307719   -0.96416968746393   -0.54324970565491
H          -0.96945332947510    0.24281159867271   -1.08142984097297
N           1.63687660219442    3.22307752520035    0.50264587795345
H           1.00193247844356    2.97190929234350    1.25451005092365
H           1.10377677434937    3.17899857302144   -0.35733751899034
H           1.95815955023461    4.17304594167355    0.64147773207424
