    26
        -50.46206244  Gyration_radius:  2.40741646997 Dipole_moment: 2.077
 S           1.53905936326797    0.19869909819553    0.91326974610327
O           0.77323654768956    1.26777890249784    1.53042050435704
O           0.86868455766816   -1.08904569823307    1.06366165970518
O           1.88771759754181    0.47274325382164   -0.46427256400275
O           2.89491968190803    0.10223228395431    1.71419280733144
H           2.58928343109863    0.12996711110093    2.61426393309815
O          -1.41728982524260   -1.70127046530976    2.30975238219587
H          -1.83548614074657   -2.32299278888787    1.71022515268170
H          -0.50814166089534   -1.57734805304177    1.97322493304810
O          -0.78200077570733   -1.43669561325043   -0.97491581970237
H          -0.14027936731448   -1.40946030636789   -0.23067334620023
H          -0.22103411006625   -1.31785405549985   -1.79131237192221
O          -1.95701565949591    0.73943496667076   -0.69052329218189
H          -1.53079825425056   -0.22921324314518   -0.86306145295928
H          -1.22188001276818    1.40638482396899   -0.93041646922741
O           0.06796948817218    2.27843891152419   -0.97714041912783
H           0.81762348829413    1.64538654388287   -0.89031944327400
H           0.09131960046075    2.78450023849418   -0.15899138088559
O          -1.82058471705559    0.88004908802504    1.79284720000372
H          -0.86662042983914    1.12022678737510    1.82893686093533
H          -2.03317030336798    0.81838484188906    0.37152411090708
H          -1.85688889093365   -0.04407205215061    2.12939743587340
N           0.94405926921558   -0.79623049617072   -2.88454775121253
H           1.51194364581067   -1.48429772188984   -3.36178963129611
H           1.52346530939674   -0.34853137498678   -2.17599783520047
H           0.68190819715537   -0.08721499247247   -3.55775494904704
