    26
        -50.46961752  Gyration_radius:  2.44278855485 Dipole_moment: 6.014
 S          -0.53437355352578   -0.75867592544568   -1.70036019747319
O          -1.70613537972077   -0.18065167657855   -1.06587035565480
O           0.19205726748933    0.21466489111405   -2.49494466525628
O           0.33205219377151   -1.45367020423426   -0.76180558849670
O          -1.06559294878313   -1.86196989461893   -2.69438830901253
H          -1.67808233057844   -1.35576274548812   -3.21616640385396
O          -0.63601194738043    1.71406176245712    0.51587946423158
H           0.04010395026634    2.12653094291626   -0.03555193689887
H          -1.09475431354234    1.07524512429179   -0.06045989092935
O           0.76005901945802    0.41649680927027    2.40816152256072
H           0.14657569884136    1.01477178974721    1.93023243508515
H           1.72337367234216    0.20111854291025    1.32389079724049
O           1.54698446691373    2.05319228019330   -1.29031760504120
H           1.86409135746037    2.69578898637175   -1.92635218124043
H           1.02483534674128    1.38464592046143   -1.80874346331693
O          -2.87837096137667   -0.76169809986490    1.29813793489727
H          -2.96037354200382    0.11283356842866    1.68477356573122
H          -2.58089242339996   -0.61673167799143    0.38156022574402
O          -0.45214310407593   -1.84397679789763    1.85700251887359
H          -1.40114869768966   -1.61248137701207    1.82539425369390
H          -0.18285615464854   -1.91094578246488    0.92701901302795
H           0.30381391270604   -0.46776679094481    2.40085090950492
N           2.23281273811673    0.00113580337948    0.35927789211672
H           2.25288907646544    0.87359728374492   -0.19461004684301
H           1.59332327879511   -0.66538113641574   -0.14332384233852
H           3.15776338730970   -0.39437158636374    0.48071396361915
