    26
        -50.46961703  Gyration_radius:  2.44256635077 Dipole_moment: 6.038
 S          -0.47339065780657   -0.11219486946352   -1.87581748050151
O           0.86871797030891    0.17094733529819   -2.35010941715998
O          -0.57859181806719   -1.43999805958919   -1.29671376998589
O          -0.97279152420366    0.93077317993948   -0.99418797440404
O          -1.42064321740426   -0.10010756032871   -3.13683730828117
H          -1.08368347727560   -0.84403775393038   -3.62324911355319
O           1.13861930507814   -1.30937761422933    0.76979355666451
H           0.53159244649841   -1.44056649188866    0.01810912173255
H           1.90650399967431   -0.84908893485088    0.40962915420450
O           2.74320479316707    0.59507002870777   -0.62553968714160
H           2.06941471180832    0.41624524887113   -1.33430637800608
H           3.59118637395822    0.64140739152382   -1.06909169545231
O          -2.12338337827292   -2.34272871542178    0.72807092898621
H          -1.65898124446042   -2.10214277612511   -0.09418934330225
H          -1.47074435301742   -2.78918028045307    1.27202244212352
O           0.08620917433389    0.43451265992293    2.52095948745513
H           0.54037955677868    1.43599337635980    1.55110230232742
H           0.48770869387351   -0.35573450427336    2.10026470283033
O          -2.26306642837120    0.29263931754749    1.36254333061183
H          -1.99106634747263    0.59701647787809    0.48206610044432
H          -2.42415186099516   -0.66549318389120    1.25575852544287
H          -0.87618825963530    0.38884838415067    2.27171232433713
N           0.79859054019439    2.01476947596584    0.64091942301416
H           0.07607624086679    1.72805260057007   -0.06728200786679
H           1.71305930086204    1.68873424486519    0.28605276298831
H           0.78541943955329    3.01564103282399    0.79831999246228
