    26
        -50.46648752  Gyration_radius:  2.43192694686 Dipole_moment: 3.448
 S          -0.38299007060275    0.43751556738796    1.67792736784084
O          -1.69158448099012    0.56354929573243    1.08622992378030
O          -0.03014816755070   -0.95745230185774    1.94362047726554
O           0.66764190544338    1.10396564824924    0.92703251205728
O          -0.45897752901842    1.16660541784471    3.08101422044716
H          -1.39786612518690    1.18704400038924    3.23448750409843
O           1.63627669262532   -0.44123546940435   -1.00901419244445
H           2.28387930411611   -0.93573712574633   -0.47700609717949
H           1.32442090271250    0.24578046168330   -0.38052493377578
O           2.50426876028715   -1.60412988363018    1.27594163583941
H           1.61228258737554   -1.39927536368878    1.62042207766363
H           3.12110372366700   -1.20022665717913    1.88754964668854
O          -0.24358949368934    2.91485863604023   -0.80185346467499
H           0.44918500916847    3.57540536749838   -0.85599440189036
H           0.01773179144424    2.29862479075241   -0.08939666487611
O          -2.35962298754318   -0.45797529083807   -1.31401789914016
H          -2.37434254551389    0.05116058811588   -0.48206392229881
H          -1.34283290020809   -1.47124605023508   -0.87511842428250
O          -0.45876772330612    0.89093086639463   -2.60458282921606
H          -1.81672720553267    0.08270821092548   -1.93638312608097
H          -0.46838715542475    1.71763862277236   -2.08326374929079
H           0.38435479929727    0.46951125365344   -2.40746281042987
N          -0.46699152246181   -1.98017188563573   -0.46500891986449
H          -0.47246075160318   -2.97956421399376   -0.63647664529175
H          -0.42346669235996   -1.76371517944395    0.55723888570073
H           0.38760985485890   -1.51456932578634   -0.87329617065095
