    26
        -50.46648673  Gyration_radius:  2.43198392104 Dipole_moment: 3.439
 S           0.75660461107596    0.38227982044259    1.56046318442860
O           1.26169201736026   -0.98711203198540    1.45842364537814
O           1.47882618282707    1.29302540282224    0.70765525306671
O          -0.68394299077989    0.41869783537409    1.37170180038736
O           1.02375382010876    0.86033430755579    3.04581287835579
H           1.79980010230109    1.39984982626910    2.93535958839706
O          -0.66473867679262   -2.87406759482443    1.33340399581269
H          -1.09437559816299   -2.96617365670217    2.18463847094494
H           0.06790262884426   -2.24094125986579    1.47002514074862
O          -1.53899115916141    2.61087011864060    0.12213145392043
H          -2.42064998872410    2.76316926931142    0.46648820899631
H          -1.16049876955313    1.87824822515736    0.64718854830765
O           1.53506149673921    1.11064773943392   -1.97857268838644
H           1.63266768832172    1.44009583873569   -1.06565166823735
H           1.40797421728596   -0.34223856495232   -1.62290791485201
O          -1.46381396476551   -1.17072555814863   -0.61273075753285
H          -1.30177575738207   -0.50522843767694    0.09101218435037
H          -1.51694664826040   -2.00176459086399   -0.10928090841097
O          -1.11327816217640    1.28424028759044   -2.21242108194041
H           0.60210191430811    1.31595910440106   -2.22728710738394
H          -1.48738397219211    0.44075622321354   -1.93694514837959
H          -1.29688940168022    1.90552938626026   -1.48056416218984
N           1.13551120975870   -1.30014881553482   -1.17302809037450
H           1.40535083994696   -1.26506372633837   -0.16329964386259
H           1.55446412299392   -2.09355549791941   -1.64550352032401
H           0.08157426776058   -1.35668365040080   -1.16611167121178
