    26
        -50.45561713  Gyration_radius:  2.4595462796 Dipole_moment: 2.292
 S          -0.88638745957140    1.78669261548040   -0.00684206787199
O          -0.52582063050462    1.47509798151566   -1.37261217563926
O          -2.03260701783285    0.99455711045298    0.44295028107331
O           0.22273144035896    1.72394366798300    0.92151681018540
O          -1.37706836249935    3.29243162180938   -0.00257001789402
H          -2.08687757431695    3.26309978546984   -0.63523322240978
O          -0.32687751136519   -1.18205255754555   -1.56864319482929
H           0.55626087805900   -1.33558132212917   -1.19457105469105
H          -0.45437167895978   -0.21183133936758   -1.56816391223509
O           2.10028353208652   -1.31001164687659   -0.25052034270747
H           2.90992744072641   -1.80651555941329   -0.37281773014774
H           2.29050923487410   -0.35692676110425   -0.51419700608570
O           0.79581738772564   -0.61346849429025    2.01575318765463
H           0.70264284965476    0.33040586733139    1.76134163783638
H           1.28744407215758   -1.02465774426358    1.27573519759123
O          -1.98999504952690   -2.56351654977650   -0.13910683805063
H          -2.86014186156957   -2.44462025579791   -0.52378682125875
H          -1.35019962765631   -2.09654071647848   -0.75258367131138
O          -1.66180806955246   -1.03110457797198    1.84058535218385
H          -0.61954489188239   -0.96609950469081    2.00495757214139
H          -1.87961056824120   -0.14270369251206    1.34281396573719
H          -1.81686514219621   -1.75450083312410    1.11333401709608
N           2.32809674004735    1.22688551024245   -0.91002366545075
H           3.14849561112273    1.81971328267370   -0.93200635497602
H           1.69755936713294    1.58253018253633   -0.19095889018435
H           1.82840689164906    1.34477391989442   -1.78435106570763
