    26
        -50.45561713  Gyration_radius:  2.45954691059 Dipole_moment: 2.292
 S          -0.80809834711122    0.87048203730602   -1.60226299437055
O          -0.27957775783636   -0.40871559360768   -2.02267567370869
O          -2.03394768820281    0.71619142743066   -0.81670635324228
O           0.16301945575775    1.71857615816039   -0.94378043002991
O          -1.23665787327363    1.63632282614920   -2.92054225133999
H          -1.85568084331662    1.02398027112872   -3.30368416138056
O           2.06298397708700   -0.71773931230293    1.19123591823227
H           2.86203309390804   -1.01142500206118    1.62971632971855
H           2.32339774121737   -0.40984906645189    0.26848417168414
O           0.49364192475130    1.43553213483850    1.66387304080746
H           1.06405167228072    0.63993291830758    1.67128536872314
H           0.47183770859643    1.71990560194123    0.72421267228735
O          -0.15837338628450   -1.98029338318432    0.13461340107406
H           0.65994809098483   -1.66681545310366    0.55355977100223
H          -0.24739107628776   -1.47118602110347   -0.69633220544531
O          -2.05031838598278   -1.67708146539243    1.88005754112737
H          -1.31643582202207   -1.88160823819656    1.22940881956523
H          -2.85568056816636   -2.01683465658782    1.48606576282979
O          -1.93239598512673    0.83606985553067    1.66714193211125
H          -0.91993911882789    1.10570395447724    1.80780402793327
H          -2.04704758279057    0.87498154289348    0.63282588687545
H          -2.01604127230941   -0.17644927760631    1.87702117943527
N           2.47466583484648    0.11141227436606   -1.27163097823825
H           1.76738799857317    0.84672199165135   -1.25776839929765
H           2.10186200125007   -0.60512695854054   -1.88451347789696
H           3.31275622828935    0.48731141395693   -1.69740890845744
