    26
        -50.45561713  Gyration_radius:  2.45954858067 Dipole_moment: 2.292
 S          -1.94711345851825    0.42909678602532   -0.05159590432788
O          -1.73879375920971    0.26367607302233   -1.49133642250532
O          -1.79657303895138   -0.82331086781703    0.65638708492292
O          -1.15736685788699    1.51147112863627    0.49676556981140
O          -3.46110519861084    0.86242331129295    0.11601416935325
H          -3.91578480138749    0.10982622756596   -0.24704189324585
O           2.07976208172521   -0.18935198306486    1.35235434001779
H           1.30891735260771   -0.03183731147019    1.98090104774711
H           2.86884534242178   -0.28234272537573    1.88686009273799
O           1.33404301471536    1.78154728936994   -0.34537407162533
H           1.76523067705806    1.08698620662321    0.19319900279680
H           0.43497623522492    1.87469247747335    0.03843474923508
O           0.51049140438501   -1.92049817693202   -0.12595576399356
H          -0.37366145318008   -1.59716217594290    0.14109076243279
H           1.14979367514514   -1.42444967128131    0.41131904981840
O           1.17393203558892   -1.54735992431032   -2.60356623369936
H           0.56808183613791   -2.06242565604437   -3.13921998768803
H           0.95988858454284   -1.77150940864574   -1.65083148925726
O           0.45418883194541    0.87055893876317   -2.49966798733473
H          -0.51006953798222    0.69437019098541   -2.14806341568626
H           0.94140243118686    1.29691137330284   -1.66396182415544
H           0.83775404811916   -0.08468613944770   -2.62863377664896
N          -0.09870386032640    0.19980350010110    2.77556467566273
H          -0.20625710169231    0.59708606030507    3.70054104945366
H          -0.62699179202038   -0.66482625894338    2.73863822920520
H          -0.55488670103306    0.82131072586400    2.10717893699736
