    26
        -50.46648698  Gyration_radius:  2.43186348152 Dipole_moment: 3.431
 S           0.48408270119824   -1.68025991770516    0.30823404836885
O          -0.20342538656250   -1.84950539619684   -0.94753989342964
O           1.83436216453662   -1.14565269351899    0.13023135374854
O          -0.25825898109936   -0.89935748137500    1.28350977480386
O           0.64223755824437   -3.12959076857273    0.92543551367937
H           0.51383714187489   -3.67794931392991    0.15838259175554
O           2.50172002124651    0.78124831425300    1.89928027794075
H           2.62627453798368    0.40198627179321    2.77012666537345
H           2.34542148099914    0.02610802679493    1.29798343058658
O          -2.85775137442235   -0.70093689378205    0.73383843461682
H          -3.28606441255544   -0.62641143109016    1.58831407202198
H          -1.91520949972484   -0.88833618120044    0.91308223425111
O          -0.81613928056655    0.17920702160831   -2.60902421619111
H          -0.77928693854035   -0.69897765595515   -2.18596916817844
H           0.45127672723573    0.71219432923070   -2.00639933675051
O           0.13612518353163    1.71177403640172    0.96926027640330
H           0.95808099445191    1.78803282519502    1.48454525862123
H          -0.14205867127464    0.78698700598944    1.14753274169933
O          -2.23770274636658    1.47898285525534   -0.76819950572639
H          -1.61853977369809    1.87621495756648   -0.14678142744618
H          -1.48711408789599    0.68558456119473   -2.09154464896049
H          -2.62754648450595    0.71504569840940   -0.29958630186822
N           1.26432869338509    0.99291331697028   -1.33233496428321
H           1.98238957786886    1.54666524358837   -1.78621177531331
H           1.65539938193096    0.11363491332150   -0.92288796417057
H           0.83356147272429    1.50039835575604   -0.51327745155133
