    26
        -50.46648694  Gyration_radius:  2.43195065656 Dipole_moment: 3.440
 S           1.77134840720192    0.11358708068684   -0.05815284110015
O           1.49034072997033   -0.06229764199363   -1.46115386784168
O           1.52802008470791    1.48653718763483    0.38526983959379
O           1.08708783819609   -0.83756401854426    0.80161672547311
O           3.32066251694865   -0.15849153199486    0.12062861684628
H           3.63593059112550   -0.05592968134001   -0.77133983473389
O          -1.36949565577250   -0.02724142269924    1.41873129414505
H          -0.51492597044714   -0.46619621456972    1.21514611264970
H          -1.14021867384065    0.54115067092358    2.17448310135208
O          -0.94814782239654    0.26231911579067   -2.55677438066581
H          -0.01150767568627    0.02463610918064   -2.42371124499420
H          -1.03059118667242    1.26280930110001   -1.44081865086023
O           0.25332411800469    1.67675899584952    2.75729677651816
H           0.79742359454953    1.66344016052499    1.94485023824116
H           0.83996201860661    1.42166460731380    3.47035214028608
O           0.18889700984500   -2.98652855905220   -0.49204816258578
H           0.61932682464185   -2.21418013052783   -0.07497675559352
H           0.21604721985687   -3.69352075264409    0.15488408921778
O          -2.07931794553263   -1.57363450604402   -0.99216148171578
H          -1.33629195780256   -2.20514176381601   -0.92571259511909
H          -2.17414344274810   -1.19117266622670   -0.11346898580706
H          -1.46082315604294   -0.48476875553498   -2.16497987721677
N          -0.95993442437030    1.78807899717384   -0.48509148379812
H          -1.35067459656940    1.14699105693634    0.25675040962922
H          -1.42664433011015    2.68831419799662   -0.49193909538646
H           0.05434588433368    1.88038017387688   -0.24768009653401
