    26
        -50.46186007  Gyration_radius:  2.40635711965 Dipole_moment: 3.267
 S          -0.12842400979243    0.91409735776648    1.53837148218583
O           0.48483430507982   -0.28349949777354    2.08580970611420
O           0.82799997004666    1.69952905569356    0.77254045544575
O          -1.33590455876801    0.63864912368316    0.78231069307938
O          -0.57369384046146    1.78758008377599    2.77486316261227
H           0.16787732243808    1.67687218000286    3.35927951660151
O           2.39365514718503   -0.26361295414531    0.05640487723987
H           2.47819363050753   -0.72838346389062    0.89467557071306
H           1.88136872234786    0.54876030229662    0.28086990451175
O          -0.92538464411935    0.09833113109774   -1.77389250906478
H          -0.35237216190192    0.85704840942580   -2.07820461188583
H          -1.19173207182744    0.35403885046293   -0.86351079688682
O          -0.30443031332174   -2.50856028588550    0.90208873727845
H          -1.27902832397633   -2.39308577484131    0.83029394389142
H          -0.00475093495248   -1.76666127509713    1.47516613796852
O          -2.78948753512013   -1.60139701825100    0.58190215347367
H          -2.41857063309486   -0.71986390323492    0.77802752394011
H          -3.12955150872688   -1.55202044849947   -0.31400288174725
O           0.70403975603129   -1.69976882564613   -1.22718711183242
H          -0.01630455053174   -0.97416821678670   -1.55570486165476
H           1.47361088902973   -1.15678024261133   -0.83726582995458
H           0.26567778789472   -2.16284011362910   -0.36895780635524
N           0.76445556186894    2.11268245502238   -2.09418905106803
H           0.47667421820137    3.00879165175936   -2.46559553801904
H           1.68933490908884    1.90979026128547   -2.45238370880907
H           0.84191288687260    2.20447116801313   -1.08170915776697
