    26
        -50.46123394  Gyration_radius:  2.41011601892 Dipole_moment: 2.657
 S           0.44375962934839    0.60952325944040    1.63743404014600
O           1.40948331672355    0.80613306365406    0.56910629655546
O          -0.82208298574892    1.25799309793927    1.33721373112099
O           0.28068511777467   -0.78706178694645    1.99676133025638
O           1.01869088978435    1.32669247795634    2.92143845137886
H           0.95579040099365    2.24342007483375    2.67773626609070
O           1.10669399590454   -3.05218610518607    0.81250063838502
H           0.38333689761770   -3.66636289144266    0.95168096559859
H           0.93556653810274   -2.29407861704994    1.40214758692323
O           1.03273345907283   -1.20372363064857   -1.12163925050795
H           1.27444310414541   -0.45744933306535   -0.53064369659852
H           1.17761331158482   -2.00859985097643   -0.57935489545957
O          -1.44389867682902    1.56287758151687   -1.20277326502492
H          -1.27608778626593    1.58532877709787   -0.23153949687459
H          -0.57591064825292    1.83490512874709   -1.62224550280987
O          -2.11709539038225   -1.21569600813528    1.05265305369919
H          -1.23968516486309   -1.13650158744208    1.49357843672401
H          -2.57145598848192   -0.39941342147777    1.28137060785504
O          -1.44619590001957   -0.89591381306060   -1.40295295141152
H          -1.79613397995400   -1.14405187342689   -0.47937077681739
H          -1.51714070319607    0.20465926946848   -1.41829919500229
H          -0.41505047843229   -1.08295469447516   -1.37546018644815
N           1.02770520532920    1.99676311644676   -2.03637476175814
H           1.33617608092198    1.30227644237463   -2.70562854241451
H           1.40474028337094    1.72771722690175   -1.12907148436536
H           1.43331947175580    2.88570407695286   -2.29826740923818
