    26
        -50.46961794  Gyration_radius:  2.44254640981 Dipole_moment: 5.997
 S           1.73876003336541   -0.78359933679301    0.34758462967182
O           0.72619031090666   -1.68490839622824    0.86900060839761
O           2.02834867889332   -1.03845695985599   -1.05147449512209
O           1.43279876682679    0.61638773857232    0.59511044685229
O           3.05909784361887   -1.08462931950761    1.15622353163879
H           3.13775081194018   -2.02403059124358    1.03330826647953
O          -1.18123058440406   -1.27377627137489    2.73940456962064
H          -0.42689491331978   -1.51460695969082    2.17160617939115
H          -1.96258925293328   -1.58263640269139    2.27558378735713
O           0.29664300395206   -0.35556434767660   -2.84069509043815
H           0.55682805101233   -0.69920809617675   -3.69637703846178
H           0.99064524792354   -0.66000872354760   -2.19725685262067
O          -2.12756261970791    1.42301662241796   -0.02212796043181
H          -0.94629498275471    1.79413076875181   -0.80838470057921
H          -2.12320224399402    0.46113325757137   -0.21503397522272
O          -1.40044684113326   -1.08224273381550   -0.66459629849045
H          -0.66178779213299   -1.37876993571775   -0.10155273402529
H          -1.03642933767612   -1.00137211406501   -1.55472943148193
O          -0.70790895430643    1.34049916458165    2.18228055475623
H          -0.95323255607243    0.49003946213094    2.59678509283794
H           0.15581210759648    1.17522130893225    1.77178242259784
H          -1.74530972375734    1.49581920096308    0.89375404311863
N           0.05326635616149    1.86204019933361   -1.28365995624865
H           0.08170642267701    1.22218855787467   -2.09481817065690
H           0.71369310463385    1.47233381994601   -0.56392408683692
H           0.30134906268481    2.81100009730680   -1.53779337210244
