    26
        -50.46139542  Gyration_radius:  2.47786331756 Dipole_moment: 5.248
 S           0.31997737087454   -1.59117755035222   -0.32194020670397
O           1.27004038724472   -0.47579874197907   -0.35621668798039
O          -0.94691522903419   -1.10525648313662    0.27644767587824
O           0.10333414483307   -2.19466531574188   -1.60550881861757
O           0.87798172698309   -2.66718319736306    0.64516168450299
H           1.35859992758465   -2.14929461250522    1.34149184786528
O          -1.55019013204797    1.16429025691055   -0.64791305283007
H          -1.43235442986356    0.20042527058919   -0.32450980369019
H          -1.20867765683506    1.74667072247757    0.17516956168392
O          -0.22504156206575   -0.76764825744524   -3.80154113423963
H           0.36298986001787   -1.14234692060553   -4.45937250133705
H          -0.19258713959810   -1.37957420973341   -3.03303151099221
O           1.94088772605813   -0.85377697414266    2.16931453693149
H           1.13437659976793   -0.51721202337753    2.59661237023691
H           1.96804847155056   -0.43902600395293    1.28856716455864
O          -0.66359812521166   -0.17247230366670    2.68671823179588
H          -0.81873113636997   -0.56670372146811    1.78899811482403
H          -1.21021256654684   -0.67451767867289    3.29310031231813
O           0.40684829486542    1.20952959892245   -2.17320238105258
H           0.17987773593385    0.62083298758015   -2.93270361024637
H          -0.78523070257621    1.27357089180497   -1.39084470192745
H           0.92302743526004    0.63699235465360   -1.55969342077411
N          -0.57752097984727    2.38535685398200    1.36786487124739
H           0.38480125061098    2.62018486499102    1.15969999677153
H          -0.58314142211289    1.63937224716415    2.06324911299060
H          -1.03658984945437    3.19942794506735    1.75408232878417
