    26
        -50.45970190  Gyration_radius:  2.46839386054 Dipole_moment: 1.807
 S           0.74582123494881    0.61530908682842    0.88063348843523
O           1.90403192509567    0.30674072823708    0.06907911522947
O          -0.27591694242370    1.33539301326970    0.11053794096125
O           0.16406143166930   -0.57636183108031    1.49495578153978
O           1.17281326261071    1.53991165874428    2.05350962940020
H           1.54766565321819    2.31369058279837    1.55505881052533
O          -0.20507168673561   -2.92509441933125    0.31346229626615
H          -0.88070904404017   -3.29871295097282    0.88347939208420
H           0.10551609581114   -2.11371731423480    0.76750511878746
O          -1.07154141746271   -1.74233959016713   -1.86752703142348
H          -0.77850191914452   -2.32337478803925   -1.11668924161595
H          -0.23905843175619   -1.29098918374230   -2.17252884475443
O           1.24026790242669   -0.58494800898094   -2.30211377458778
H           1.93596344213299   -1.21102640353156   -2.51271704267466
H           1.48586715210464   -0.20121790890570   -1.42665261911098
O          -2.41111355248827   -0.90482874656256    1.72489083438261
H          -1.42674525668567   -0.80212874668280    1.75729640242495
H          -2.76274735550727   -0.33493223746939    2.41046356661038
O          -2.27243060081036    0.04530484749477   -0.67867352777133
H          -1.78415625608178   -0.78134247848366   -1.28998965577672
H          -2.52758915379220   -0.37229785385343    0.20021901845062
H          -1.48130156948037    0.65812455802074   -0.42475294303642
N           1.94040503143864    3.14205484100100    0.15970405480797
H           2.36327089929823    4.02989247108928   -0.08113081312033
H           1.02102654299232    3.08570886584084   -0.26448835168668
H           2.49017262266049    2.39118179871845   -0.24353159434639
