    26
        -50.46400415  Gyration_radius:  2.43623661629 Dipole_moment: 6.301
 S           1.90124268462957   -1.20940956835620   -0.01863266384228
O           2.16904178283595    0.01192482765906   -0.74092878237369
O           0.92334025519424   -1.01737610840840    1.05501386734370
O           1.57742979969877   -2.32886071707555   -0.87278298044302
O           3.24233823272497   -1.59473529324127    0.74640406749346
H           3.82777240938043   -1.76727142741012    0.01691234098500
O          -1.53592425376490   -1.76746824250544    0.84031560715929
H          -0.56410323798417   -1.55833016114622    0.92171904729352
H          -1.68795845305810   -2.52315602879116    1.40900468392600
O           0.32808006923025    1.41790219694783    1.87661502870159
H          -1.01180484096500    1.19402523089920    1.38980832144288
H           0.69804311337230    0.51914113811886    1.72581588447469
O          -1.18948799978921    1.35755504948008   -1.69122596388420
H          -0.85262136363547    0.42265666513370   -1.76986531228855
H          -1.52266741617937    1.58917928574197   -2.55885573595297
O          -0.60894159736928   -1.18579598396886   -1.76199068698650
H           0.27428387433186   -1.57541725151647   -1.59123541584786
H          -1.17868341933493   -1.58121319497648   -1.08950564316425
O           1.10773187027681    2.41307882921628   -0.41196257826078
H           0.70968835213852    1.95985223944827    1.13335859793868
H           1.65314592741738    1.61705589645090   -0.58290294887385
H           0.32634203998435    2.28196874320540   -0.96714579864470
N          -1.96056823319374    0.91151131848631    0.86881197841387
H          -2.77484951625487    1.34791354822724    1.28429870432986
H          -2.01097777244933   -0.12530397011730    0.91354304602903
H          -1.83989231712132    1.19057296846743   -0.12458667498628
