    26
        -50.46139516  Gyration_radius:  2.47749672014 Dipole_moment: 5.248
 S          -1.20298225203875   -1.11263214418301    0.22095997301107
O           0.23374826066643   -1.39033277976304    0.46093312884275
O          -1.36029987615724    0.32492835388388   -0.01673861427252
O          -1.73129981622362   -1.92597139622704   -0.83645305335945
O          -1.94416044165604   -1.46553314469733    1.53653343589617
H          -1.84582638369861   -0.65652396967827    2.10217216224705
O           1.66962862198843   -0.11694298574873   -1.17820733180329
H           1.95110112851696    0.67880876889222   -0.53002024443665
H           1.14967087648639   -0.75156933833637   -0.56656389555216
O          -1.33938625293488   -1.35855217871550   -3.38390100829475
H          -1.47213315290365   -1.69491425146690   -2.46988409368790
H          -2.19854219949748   -1.40381609428545   -3.80666089500957
O          -1.37012656621176    0.84535298453257    2.57156833384100
H          -1.42114953685800    1.04200365216328    1.61911197781840
H          -0.42762902833346    0.69791084394871    2.76207196758372
O           1.20431528595232   -0.09244006654556    2.49383511374041
H           0.85650365161439   -0.64194739710323    1.74385966721649
H           1.53928941787147   -0.71343253495993    3.14242079976687
O          -0.29380317401767    0.83552348262109   -2.35913120802826
H          -0.83314073433691    0.79491801671567   -1.53563555843145
H           0.90878078170597    0.30348429339642   -1.80621045892667
H          -0.65310650491593    0.11329376788569   -2.92875506879554
N           2.13990195257704    1.75266444040462    0.49068093836783
H           3.05373773988391    2.18189509303442    0.54764372207688
H           1.94097140820263    1.27677500955439    1.37045638702206
H           1.44593677431377    2.47704958468771    0.35591383317660
