    26
        -50.46220819  Gyration_radius:  2.42223479316 Dipole_moment: 2.952
 S          -0.15624477031609   -0.16783422316059    1.23450992538657
O           0.30929643661275   -1.25015252281816    0.35498388757649
O           0.68906809050156    1.00735924660782    1.07615674989183
O          -1.55815774316503    0.13421888830711    0.97860404414032
O          -0.05490789009930   -0.66994205398139    2.69207731595700
H           0.93299072125329   -0.73441374360447    2.83640771041917
O          -0.13804984557177    0.68378058024532   -2.63747828904637
H           0.77943130018020    0.66885769255113   -2.26307839865197
H          -0.63149406508247    1.32313693051445   -2.06444138881056
O           2.01019957178407    0.40127028857130   -1.13217851620976
H           2.01228467133975   -0.55208338604061   -1.00330392113001
H           1.59108306727798    0.75206317083448   -0.31641601678684
O          -3.23060276360528   -0.77294876351635   -0.83138800578224
H          -2.77137751701545   -0.50006114713916   -0.00627890241425
H          -3.58264517787212    0.03371634928136   -1.21613041092317
O          -1.27375819856269    2.13144662388453   -0.73575669035124
H          -1.45730452467453    1.45943165722316   -0.04658326809551
H          -0.57901053946263    2.67618372874576   -0.35748718261417
O          -0.96806710832600   -1.48784691824533   -1.79118704413163
H          -0.62067872548329   -0.55930273724037   -2.27348974475822
H          -0.43968993800091   -1.50261981520130   -0.90045559901210
H          -1.93522707572657   -1.31916099115743   -1.51772443862931
N           2.54442238147177   -0.52585204815349    2.58456417365141
H           2.96293317284611   -1.24006184169405    2.00352905051877
H           3.19589565498589   -0.28454818897885    3.31985651901251
H           2.36961078470746    0.29536322416355    2.01268843079697
