    26
        -50.45150884  Gyration_radius:  2.46633404565 Dipole_moment: 3.784
 S           0.49544448646684    1.20850252000964    0.57139178793538
O           0.81188543506626   -0.14211665895272    1.02317761967070
O          -0.26726464384846    1.17469362365287   -0.67711719943001
O          -0.24527902566527    1.94728059508033    1.59836442880302
O           1.80630020969803    1.96793597729436    0.32629406177327
H           2.37717571527370    1.33060412686701   -0.20321957176808
O          -2.80306248667430    0.78673944541395   -0.41682156344186
H          -1.83128008654962    0.89703053117128   -0.61242783592320
H          -3.23722288713336    1.55645287731133   -0.78961782395708
O           0.24872077452812   -2.49766764159044   -0.12463331577105
H           0.94619875555085   -3.09375375036870    0.15349050423370
H           0.51869401254991   -1.61403407644107    0.19571630573465
O          -1.10926751784052   -1.41748659683962    2.26153693781974
H          -1.27155572676263   -2.06537025476613    1.56476967458099
H          -0.27364142638597   -0.97132574905986    1.98474921006488
O           3.15198952014693    0.37451519131608   -1.16761834147848
H           3.61000253996768    0.90442639861512   -1.82345532684833
H           2.41881771081937   -0.11527641433454   -1.65557254997701
O          -2.35332466281392    0.77003895593289    2.07540601698567
H          -2.70952343694860    0.75434909072520    1.11121578120633
H          -1.97963661428789   -0.18026560810082    2.25481946360333
H          -1.45774705738636    1.35932533233037    1.97268104062891
N           1.05786422682856   -0.67836042846970   -2.36203795126234
H           0.44586550207846    0.01360010581854   -1.92829278334057
H           0.78415622933700   -1.57746644432217   -1.97721417326188
H           0.86569045400574   -0.69237114828724   -3.35558438658329
