    26
        -50.45970193  Gyration_radius:  2.46844442928 Dipole_moment: 1.806
 S           0.99519895195355    0.53566873836641    0.65774106384434
O           1.85396209465307    0.26126330721174   -0.47468762256747
O          -0.17610478767025    1.32969866383383    0.26660241622074
O           0.56939738328547   -0.68415345512898    1.34079195099071
O           1.78202046912083    1.36559723293314    1.70889098162582
H           2.02726472420382    2.16456258838921    1.17111889454946
O          -0.22746409230235   -2.93528280105943    0.18048287745970
H          -0.72293862015693   -3.33189997708731    0.90040549402677
H           0.23643038655460   -2.16510243389769    0.57106198620021
O           0.49011932097600   -0.44821213826740   -2.59502398505969
H           1.06753631653120   -1.07279455621679   -3.03865309893762
H           0.99623679721905   -0.13202862594173   -1.80906338953034
O          -1.64121849500648   -1.58247590231053   -1.57353260332375
H          -0.91550232849766   -1.12892293727254   -2.08089069134066
H          -1.16691146524934   -2.22165075869635   -0.97869098616684
O          -1.83753797481532   -0.97338435318014    2.29724958459585
H          -1.94990015648259   -0.44721194298157    3.09030846707816
H          -0.88324974970637   -0.89390412116733    2.04493490089220
O          -2.36799885960827    0.14226292432959    0.02262664401951
H          -1.51255596907857    0.71831283636240    0.06963066171402
H          -2.11392350267396   -0.64967434741931   -0.75484875368179
H          -2.37212683373469   -0.33094376076468    0.91031183085384
N           2.03132680997423    3.08132184470084   -0.22420244284676
H           1.02680297332475    3.07652590721448   -0.36325195865328
H           2.40750559278767    2.34838534810814   -0.81580774046795
H           2.40363103439693    3.97404271995234   -0.52350452149019
