    26
        -50.46407694  Gyration_radius:  2.3640386573 Dipole_moment: 3.024
 S           0.61827991671700   -0.94591534054699   -0.82647544001603
O           0.46004551938271   -1.17265433801647    0.61133403714885
O          -0.38135583086522    0.02605964980246   -1.29635134488186
O           1.95661935453262   -0.49187382362879   -1.14781444028226
O           0.34606924573311   -2.27758204695624   -1.55908371925808
H          -0.56424201817435   -2.51987284770427   -1.21092382441825
O           1.06124103934298    2.17192712955451   -1.40721662032618
H           1.89491927944819    1.80451667985749   -1.71916153312153
H           0.42875678446415    1.41278467323621   -1.47958692387176
O          -2.62897511852787    0.64376923707054   -0.12670851774615
H          -1.83380639644282    0.37532010936658   -0.64475382053653
H          -3.00291397377821    1.39671323943821   -0.58719955501534
O           2.78649900869808    0.26635284236196    1.20031143590811
H           2.64754680361119   -0.04348959323130    0.27022849846295
H           2.33666279022211   -0.39949314581591    1.73142545149516
O           1.22111824878772    2.25191817962273    1.11726265639790
H           1.14460475279033    2.35448461138537    0.08698852965671
H           1.95591404810383    1.52746751862406    1.24449719040906
O          -0.71893824652140    0.83238146645346    1.77611285626559
H          -1.53877449119634    0.91803544624443    1.24799028545557
H          -0.30339272014253   -0.00128328678572    1.43991627742611
H           0.33227499956149    1.76111349046244    1.44304352053256
N          -1.89480998036568   -2.51760376815170   -0.25165663890288
H          -1.35260007908428   -2.25555819600019    0.56556216970929
H          -2.42469600677030   -3.35351128987746   -0.04034660473453
H          -2.54604693951443   -1.76400660676509   -0.43739392575307
