    26
        -50.46220842  Gyration_radius:  2.42228557375 Dipole_moment: 2.963
 S           0.47755289510419    1.01023962385458    0.57452962563155
O           1.57562269417407    0.37143941727340   -0.13772109233734
O          -0.70699888958910    1.09750292124950   -0.29195787573966
O           0.15707392328767    0.31395590420266    1.81319303528873
O           0.89098201792485    2.45007238809815    0.95228735615081
H           1.21864753785013    2.82277360684160    0.08361631584288
O           0.90086263781273   -2.13743267265920    1.14469005126972
H           1.74388103880462   -2.02127830661799    0.69933120129326
H           0.68475656162203   -1.24639842532067    1.49058951939726
O           0.31613227258547   -0.64478469536412   -2.22773334786037
H          -0.36717931328029    0.02995702415668   -2.28595227012066
H           0.90217015706444   -0.32998975886855   -1.50540505571185
O          -0.91282556303469   -2.45646372212462   -0.75627587908381
H          -0.44764757907836   -1.95069949896417   -1.47062211802023
H          -0.25128196310927   -2.51779679046674   -0.02214191107707
O          -2.02507647418148   -0.91452608234683    2.60487879553733
H          -1.23309009077366   -0.34019022879754    2.51031798476801
H          -1.69502949129555   -1.77644073228931    2.87111542143298
O          -2.42615774483890   -0.69029074095989    0.08705496787996
H          -1.80306013183897    0.11982543018909   -0.08040953474096
H          -1.84595337379432   -1.53918474815592   -0.31117084872480
H          -2.43626257527889   -0.80675746040479    1.09958605535908
N           1.73956287859989    2.87067146958069   -1.47522458393525
H           2.02783930690007    1.89760372204092   -1.42990882357356
H           2.52151196675034    3.43359958090002   -1.78331714352884
H           0.99396732155891    2.95459276490751   -2.15334984532895
