    26
        -50.46407693  Gyration_radius:  2.36406575166 Dipole_moment: 3.023
 S           0.09660315762733    0.58385688061792   -1.26940056827005
O          -0.75602228655522    1.15723088276970   -0.22633891717215
O           1.15601154840945   -0.23559757066923   -0.66021293952729
O          -0.67388384351343   -0.20284064790499   -2.21170584045905
O           0.78592083258419    1.74258630030928   -2.02212077794236
H           1.22385625100293    2.24305411159697   -1.26963253461242
O           0.17326931612783   -2.60611724164457   -0.99786066532686
H           0.68605705663349   -1.76675457121339   -0.87900521239946
H          -0.23388490143826   -2.50385791926679   -1.86450798115642
O          -1.64662093870016   -2.14645496833703    0.70006246207623
H          -0.89517575379873   -2.46022648991268    0.05631282893423
H          -2.27803278208877   -1.58430700487752    0.09526895086657
O          -2.86686128337303   -0.56976235853680   -0.85759947781190
H          -2.13822197602648   -0.45516525352484   -1.51815536689182
H          -2.89634948329724    0.27824556008231   -0.40180178600329
O           2.02846607183055   -0.08967726519267    1.79317740255885
H           1.79012468938671   -0.11707304419458    0.83650852967249
H           2.61633595074676   -0.83224116494736    1.94090758094089
O          -0.66371012917359   -0.23852081599328    1.96654663151055
H          -0.74699408281900    0.39103413440178    1.20656021373355
H          -1.21159904296462   -1.41777186142266    1.34667574498448
H           0.29837765352102   -0.26727611579153    2.14609589037326
N           1.56174936861362    2.73633250230349    0.25820940044545
H           2.17233941898778    2.11502002084257    0.77560845413901
H           0.61189513804818    2.55544063794054    0.56738803831637
H           1.80635009020662    3.69084327256746    0.48901993900825
