    26
        -50.46206228  Gyration_radius:  2.40776780932 Dipole_moment: 2.098
 S           1.68525350724703   -0.00623002539725   -0.62737897777491
O           1.44847426679901   -0.79052006699945    0.58057299619937
O           1.02012754004762   -0.59396455478538   -1.77731753785424
O           1.36396104198842    1.39227374011033   -0.43967681876503
O           3.23339825812634   -0.08072370664059   -0.92192242046335
H           3.32840886052891   -0.97466921110141   -1.23206738340618
O           0.08322872281152   -3.06619332179720    0.91325718198845
H          -0.38975711723863   -2.92208401023839    1.73569234079746
H           0.71879629520875   -2.32753960494114    0.83842251014600
O          -1.07460789720030   -2.11826850882863   -1.29027542299765
H          -0.75779492385228   -2.66870768098021   -0.53850553893624
H          -0.27209216857180   -1.64352404523812   -1.60581534641425
O          -0.86263866073054    1.46892912621483   -1.80741382550629
H          -0.02188104833027    1.57364594367752   -1.30502797318925
H          -0.61976704740437    0.92200703084071   -2.56104861858451
O          -0.76589499919821    0.07690729090211    1.74001007641380
H          -0.62973017958107    1.05722242910943    1.86577108312774
H           0.09938854585655   -0.24930938322912    1.40633452427637
O          -2.18288729748904   -0.12014861146070   -0.29713558011397
H          -1.83237851396806   -1.03161086714549   -0.72792207355607
H          -1.65643830866693   -0.03726341546143    0.63340489181390
H          -1.78402056519300    0.60106259309315   -0.90042758803271
N          -0.15809284613408    2.65793601558494    1.66753330157061
H           0.31447651456479    3.12421515090302    2.43106798189196
H          -0.82308067632749    3.30845644680741    1.26857967865586
H           0.53554867670470    2.44810124700184    0.95128852871146
