    26
        -50.46206247  Gyration_radius:  2.40765596339 Dipole_moment: 2.095
 S           1.79533245340643    0.11043278813285    0.01072113365337
O           1.17154863301755   -0.28480310363310    1.26969658172039
O           1.64304223027901   -0.92122134873793   -1.00050724255824
O           1.34539886861121    1.41187210470638   -0.43408726136927
O           3.34314134979813    0.23620823191395    0.28941960704077
H           3.59926024140706   -0.67589232704459    0.37203769339393
O          -0.08607651400541   -2.55217062962795    1.92766534969882
H          -0.84042197641930   -2.24568379605792    2.43544090848851
H           0.48840972410681   -1.77091010515672    1.80673287286964
O          -0.38826758911932   -2.57741260941104   -0.71861096485789
H          -0.34393553567805   -2.79515020042135    0.24009123361985
H           0.44467147854628   -2.08528055125943   -0.90022821344231
O          -0.20891594676225    0.64175449845989   -2.38990801217497
H           0.37568558586085    1.05213859714220   -1.71151404094815
H           0.32961467992728   -0.05827604287806   -2.77204679951712
O          -1.36294919570673    0.47449360731973    1.23978214161525
H          -1.34208291210852    1.45207752870748    1.04175589211283
H          -0.41798656201958    0.22724822803601    1.35097281442583
O          -1.90171588761437   -0.61017628751633   -0.93505493480125
H          -1.76694088207002   -0.14358515454652    0.02099583717221
H          -1.34933753142383   -0.05387792264913   -1.58964308604624
H          -1.36316548046215   -1.52921860929853   -0.86798157219286
N          -0.92652512448125    2.96766283101899    0.44611226978903
H          -1.43030709398347    3.32154209796874   -0.35743594629810
H          -0.00351740632182    2.67686743397549    0.12715792728209
H          -0.80395960678175    3.73136076085564    1.09843578132458
