    26
        -50.46154377  Gyration_radius:  2.43303787377 Dipole_moment: 1.322
 S           0.30245050853962    1.13561598012808    1.78830969734723
O           1.44621708870562    0.30153944444580    2.09125655280894
O           0.33139014046234    1.69228260206095    0.44845749538499
O          -0.95798020946104    0.44837462270762    2.05851969714676
O           0.36591614626641    2.36987906984175    2.77187248971074
H           0.55886708051449    1.97216962203114    3.61473112925810
O           1.84431408694803   -0.15945317592137   -0.65942965765577
H           2.44031503299716   -0.40129558961665    0.05545033979054
H           1.35599710058710    0.61602363470265   -0.31109046442022
O          -0.14697764870058   -1.96467298845197   -0.49166282425427
H           0.01856307811176   -2.25344480313699    0.43723109821398
H           0.60936112049837   -1.37137206285621   -0.69676029659717
O          -1.43427398113216    1.48694005997305   -1.54975473623791
H          -0.87442487911738    1.02571548185931   -2.23987973529659
H          -0.80046255510802    1.85407830412882   -0.90487607193229
O           0.28066517190009   -2.09054500376184    2.12130790684665
H           0.83039615947551   -1.28270676279355    2.17564629352456
H          -0.55078686794676   -1.84675809887819    2.53675826158735
O          -2.05869090467843   -0.39284557435091   -0.05963862499530
H          -1.91107180495817    0.42708010978355   -0.75359840161626
H          -1.33370230998930   -1.11363686801256   -0.31603014561141
H          -1.73409656454528   -0.03321685982413    0.83825779200972
N           0.16726109874401    0.05696587082115   -3.12578570829181
H          -0.17362996683287   -0.89299264736877   -3.20998465602461
H           1.01527690635310    0.02828369754702   -2.56863042509348
H           0.40910697221395    0.38799194482399   -4.05067699556088
