    26
        -50.46154475  Gyration_radius:  2.4331180278 Dipole_moment: 1.375
 S          -0.35231006654878    1.59775970901806    1.37990985066442
O           0.14918624708508    0.75362798625595    2.44391088400114
O           0.53993746459251    1.68121177417341    0.23824600945784
O          -1.70492639491387    1.22053365090551    0.97782212743440
O          -0.44364635735901    3.06086143446936    1.96827425533535
H          -0.81580477948103    2.92850941848073    2.83414650414524
O          -0.45644380848113   -1.97516904038480   -0.11653697292083
H           0.43300264168257   -1.59486389917477    0.05715789802027
H          -0.89729454527344   -1.96838593186495    0.76616108098551
O           1.76402445172882   -0.62542205983384    0.59155554796827
H           1.79155569492452   -0.70581397558661    1.54941156892230
H           1.42722176392492    0.28237554298936    0.43763942322614
O           0.11727473042743    1.09454280940355   -2.33689013902056
H           0.78473314972355    0.35952180376181   -2.46719088121290
H           0.39569850646727    1.55617353081502   -1.52342258042249
O          -1.51764310461256   -1.30915532418504    2.21959004534472
H          -0.86396851394689   -0.61428163019127    2.43769701026357
H          -2.32381142548236   -0.82791221764146    2.01487835252844
O          -1.72993258956370   -0.09160854522752   -1.18618157520984
H          -1.83180334100596    0.48831030709956   -0.35296383383998
H          -1.00029967447808    0.42968079043974   -1.79621379538201
H          -1.23683067054710   -0.95238599240620   -0.83095983287741
N           1.78397388359816   -0.98209722369353   -2.37695969769377
H           2.16087510801523   -0.94934041359660   -1.43497226226630
H           2.55975776982505   -1.00818234846255   -3.02585030523832
H           1.26747383975650   -1.84849013552421   -2.46825869215903
