    26
        -50.46154475  Gyration_radius:  2.43320020329 Dipole_moment: 1.369
 S          -1.15722051581420    1.46113185713493   -1.05181877566955
O           0.19957150620091    1.67224163320460   -0.58186286760786
O          -1.24482717416660    0.54683265568141   -2.17093266807934
O          -2.04897941190844    1.07385220893927    0.03825352393442
O          -1.65942056904305    2.86484962583091   -1.57376073485666
H          -2.42993942962483    2.64739909159911   -2.08837431786448
O          -2.37064187414865   -1.54480812918942   -0.97032595099222
H          -1.99055417740685   -0.84917461089125   -1.54417028702690
H          -2.97383600018146   -1.07576792049199   -0.38762012642883
O          -0.17388887055852   -1.97313175015977    0.45008253144153
H          -1.01921422506114   -2.05631883040631   -0.05204087156047
H           0.45156864254682   -1.57883144106405   -0.19753425249881
O           1.20975142380613   -0.61331081621608   -1.41773207924840
H           0.94213326162873    0.29242742820772   -1.15456843600759
H           0.72382588761539   -0.77384613875702   -2.23190417241762
O           1.27323046745276    1.29339423520911    1.83850051747986
H           1.03500309743877    1.69302820456222    0.98066243154605
H           1.95905436708020    0.59572338168082    1.62554074712366
O          -0.80810944150338   -0.04951716762852    1.93642688793211
H          -1.38503843826043    0.45362579528883    1.26186288648505
H          -0.52072287856058   -0.92054342206183    1.41712143607034
H           0.09308022740616    0.54623419572150    2.02549617811718
N           2.85101185316057   -0.71372417539013    1.07934284211062
H           3.85344299415945   -0.65516623637973    1.20244137702090
H           2.65637665460842   -0.74975148181831    0.08376559110370
H           2.53434260317994   -1.58684819259855    1.48314859989330
