    26
        -50.46975363  Gyration_radius:  2.44540680403 Dipole_moment: 3.754
 S           1.58901449785522   -0.40117571447401    0.96100196229408
O           1.61922864361588    0.72333574021875    0.02139984829127
O           1.39822082058343    0.01554068204930    2.32835544815956
O           0.65034692872047   -1.41487005592954    0.52138002355220
O           3.04040556956828   -1.03912469773680    0.89562166184226
H           3.23985637909506   -1.10568751019537    1.82282127535145
O          -0.26200852790724   -1.43395778947290   -1.99716025801795
H           0.45537600777397   -0.92639907512072   -2.42331044456494
H           0.07360548934107   -1.61515545216032   -1.09806913449315
O           1.95093071959197    0.04154841959324   -2.52931390697304
H           2.77344685401661   -0.44493430941678   -2.60308865396463
H           1.90488045971233    0.35751136329799   -1.60368840223862
O          -2.22480643409904    0.11183518117753   -1.34503405130638
H          -2.83056993324982    0.19571295360231   -2.08170825859742
H          -1.49570969509115   -0.51293953838862   -1.65040312310763
O          -1.08400546740795    0.98814039425931    2.52264774607946
H          -0.98585679408350    1.61709270988260    1.14969219727441
H          -0.16380324885666    0.68318485652595    2.66240466999832
O          -1.95895504605811   -1.15981834891876    1.23772700545522
H          -2.31887766707666   -0.86790114753940    0.39047411892608
H          -1.04601803517345   -1.43980738292266    1.04819958016236
H          -1.57841041468923    0.17021996994256    2.28153323292334
N          -0.75714779247785    1.84319146105081    0.10865958556446
H          -0.82326549111200    2.83497450942813   -0.09117191865150
H          -1.39307984119549    1.28600337142214   -0.50578730951447
H           0.22720200860546    1.49347942982537   -0.02318289444105
