    26
        -50.46975308  Gyration_radius:  2.44536011231 Dipole_moment: 3.782
 S          -0.44415633000413    1.17241166794947    1.42765767167281
O           0.66957462890202    0.24040455312731    1.62693881088658
O          -0.00699941613366    2.49906711360793    1.06897514830243
O          -1.42696700528125    0.61356739254776    0.52034521411348
O          -1.13504397918934    1.30869038925859    2.84965763603267
H          -1.17418583806823    2.25505720737311    2.93006842855032
O          -0.05593176426144   -2.23527965635380    2.27882030658950
H           0.27299810607882   -1.32720945931164    2.11758204081255
H          -0.57306662269716   -2.19103657893112    3.08454257702470
O           1.05063868011970    2.34357507461008   -1.38125773006951
H           1.66087713570185    0.99303161023150   -1.07522589813302
H           0.71563428744510    2.60999474655611   -0.50030954667775
O           0.17227134489195   -1.63815401828512   -2.01591767897710
H           0.26860182190085   -2.45108050862639   -2.51245325615340
H          -0.47997615261851   -1.83761663436834   -1.27437865805451
O          -1.44697098012737   -2.00633536680702   -0.03842284810683
H          -0.96952243515834   -2.33271349041796    0.74856816045352
H          -1.62940756860817   -1.06848869646109    0.16373422296860
O          -1.07864880932559    0.96428496068769   -2.15227948530404
H          -0.78308805881154    0.07407876220900   -2.38212640346585
H          -1.39168019297226    0.90320201081927   -1.23249399644756
H           0.24794125581439    2.04244854656057   -1.86763890675596
N           1.86794050792238   -0.00835393943747   -0.69895103308372
H           1.32595320829322   -0.70051830745544   -1.26419505461762
H           1.48401271247748   -0.00180302099665    0.28148477332592
H           2.85920147370333   -0.22122436808972   -0.70272449488147
