    26
        -50.46670425  Gyration_radius:  2.3894460302 Dipole_moment: 7.720
 S          -1.25255484271039    0.93836376606056    0.26523220975559
O          -0.60760810254020    0.66392895665334   -1.02287775759917
O          -1.15387706202979   -0.23576131713358    1.13894856183921
O          -0.80293506420103    2.14585869931383    0.88557680885824
O          -2.78864561173340    1.09641818104937   -0.05162129313507
H          -3.04411960701345    0.24837373284298   -0.42720053604012
O           0.93230194065843    0.57631036902616    2.63979160105424
H           0.80923522545012    1.52846329829451    2.67890143079188
H           0.12244132787416    0.23748265919213    2.22406089407125
O          -2.26338545036489   -1.22438729308869   -1.63968056059681
H          -2.58356497360432   -1.15409579107916   -2.54106628395405
H          -1.58367775368327   -0.51708738191949   -1.53078287734604
O           1.55553988157525    2.53611945437667   -0.37094036649404
H           0.72804329851876    2.52823964590471    0.14263629909959
H           1.28913689853257    2.37252455985522   -1.27788549866211
O           1.51225964575614   -0.99589380796131   -1.23604721454410
H           0.86455439605552   -0.28394335306793   -1.38837060650783
H           0.58591338355153   -1.91985298662071   -0.57239730554401
O           2.75602013600237    0.29851298629439    0.63432532657482
H           2.12227059946327   -0.60864673120668   -0.54041745243283
H           2.57235009491434    1.18841205277501    0.27688732660295
H           2.24264970354134    0.26525662218662    1.46465086326628
N          -0.28542119021613   -2.36861661365594   -0.05569541913343
H          -1.02670009304913   -2.54481503399165   -0.73895679152787
H          -0.64561982102436   -1.57736675470086    0.55703160819954
H          -0.05460695972507   -3.19379790940569    0.48589704340227
