    26
        -50.46670430  Gyration_radius:  2.38946132099 Dipole_moment: 7.722
 S          -0.36515100345954   -0.68094984828154   -1.38647312017184
O           0.68849622904425    0.33775993083434   -1.44756985008024
O          -0.38686561064189   -1.30487444370554   -0.05953318238400
O          -1.64236090332079   -0.20168667375764   -1.81549869094635
O           0.08974177813726   -1.81403266699311   -2.38359309479917
H           0.96386873307151   -2.06929632315068   -2.07334895368533
O           1.99111118893945   -2.29230617595744   -0.30027216940588
H           2.03872210070850   -3.21020425152820   -0.02604800990460
H           1.07505714487297   -1.98833047180602   -0.09396586160001
O          -2.94985316559092   -0.00719931310260    0.53931801412800
H          -2.70951375941950   -0.84844314071358    0.93289803359384
H          -2.60837506094065   -0.04551378104082   -0.37204431149931
O          -0.85591065116454    2.51250483371315   -1.06130740184243
H          -0.23206720113467    1.80803948194798   -1.30229884611534
H          -1.68201236987055    2.26551253243746   -1.48532429134679
O           0.30121531943839    0.05346602998336    2.17113018652107
H          -0.10052249642471   -0.58243166833529    1.55160512517150
H           1.52529122567305    0.28514527822928    1.39642279666429
O          -1.34980605950408    1.95658429766710    1.56011182846809
H          -1.10400449195121    2.35205921212322    0.70147325986559
H          -2.10083768326980    1.37061033467476    1.34566302853233
H          -0.28435117633002    0.86298457499515    2.08354842446334
N           2.28874909270553    0.32305315162203    0.59439155853440
H           2.96502481020212    1.06871938425594    0.71328501584292
H           1.71271795745956    0.44444935596727   -0.29146742223486
H           2.73163606277574   -0.59561967006233    0.50889794424002
