    26
        -50.46158821  Gyration_radius:  2.43378905083 Dipole_moment: 2.651
 S           1.37145819983394   -1.38763943252437    0.94660193987734
O           1.23146624598158   -1.91919190472556   -0.40851696202831
O           1.58738988908759    0.05714228183259    0.90292153843283
O           0.30313667689930   -1.77273441959325    1.82780675438358
O           2.69669707538677   -2.02106236005349    1.52345854553185
H           3.35634436739627   -1.79132133794266    0.87672013229932
O           1.36262991668449    1.72882541577465   -1.16770585199258
H           0.59808154689925    2.31500602712304   -0.89513483464882
H           1.64176173952893    1.27061689348196   -0.35074071922653
O          -1.91985781227892   -0.17721226816619   -0.70924642287423
H          -1.64395795945135    0.26135025108755    0.12644175608091
H          -1.98829575416337   -1.13365003209520   -0.47391021019511
O          -0.86877729070962    0.73472114470476    1.59747263747473
H          -1.09972555123863    0.05582301348067    2.23842587104812
H           0.08118755280139    0.57439869704277    1.41496982193334
O          -1.48480468410015   -2.67081277977095    0.07245289838911
H          -0.89905728732292   -3.09428315381159   -0.56014377364857
H          -0.90969916865992   -2.44326797901675    0.82993740494065
O           0.20228214439981   -0.28285586420066   -2.03719024454112
H           0.66558468849696   -0.99948614902123   -1.47615898001075
H          -0.74868926599568   -0.19248764330895   -1.58264791842346
H           0.72814631010586    0.62879512171348   -1.78946424187056
N          -0.83155672533798    2.98769243503407   -0.34139229057153
H          -1.62014808598863    2.77062391936023   -0.93859387338811
H          -0.83040750878029    3.98502150966930   -0.17156898402517
H          -0.98118923950978    2.51598861393885    0.54520599704548
