    26
        -50.46158824  Gyration_radius:  2.43383407895 Dipole_moment: 2.650
 S           1.32192280819807   -0.44685549023535    1.65986702557552
O           0.57427800179335   -1.69019266282744    1.47642966090316
O           1.78840228329324    0.05726419422223    0.36983623740916
O           0.61542476760258    0.53999129961300    2.42998913179194
O           2.61180291636834   -0.83670948882193    2.48116276525990
H           3.00730864519095   -1.53084488481807    1.96353676356659
O          -2.03902104399092    0.18587851594371   -0.16826046044625
H          -2.20181146624761   -0.01674066844355    0.78425523850053
H          -1.38469754352657    0.91969611412316   -0.15409883528576
O           1.13123743697415   -0.75222920065156   -2.08900256591879
H           0.66130062222499    0.04756325671218   -2.46566953325821
H           1.60270900605207   -0.42657174435596   -1.29720952930020
O          -1.84571766832369   -0.47269911029378    2.39048538073191
H          -0.99293205739008   -0.02132602098831    2.54965161237918
H          -1.64165428847038   -1.40922510812321    2.45300697917609
O          -0.03082276411328    1.95651938294867    0.13009456122687
H           0.72580909947980    1.33446342397401    0.17488541661900
H          -0.13088889179724    2.26570253508729    1.03532936619054
O          -0.64833611529294   -1.82059501671027   -0.73207628714954
H          -0.15938014433419   -1.88922975345370    0.16189981481995
H          -1.31641201446089   -1.01368138092516   -0.58466650477841
H           0.10243080405447   -1.45207782913923   -1.41721516263953
N          -0.28518222365742    1.39296743950103   -2.77755443384155
H          -0.17763377263223    1.95162020780615   -1.93658232650317
H          -1.26766575025839    1.16455843668999   -2.86763713456323
H          -0.02047065673775    1.96275354319175   -3.57045719042166
