    26
        -50.46158823  Gyration_radius:  2.43388741872 Dipole_moment: 2.652
 S           0.09765298957227    1.31888711771435    1.71840096056875
O           0.06061790888174    1.79457734854678    0.33700446423355
O          -1.06992580919943    0.48358468794779    1.99694449796559
O           1.34548138721193    0.69724501531608    2.06855788621675
O          -0.05604208610743    2.59403724926450    2.63532100765979
H          -0.91770897995271    2.93066417609220    2.41082862111780
O          -1.54252832485219    1.03648356292613   -1.66009521522759
H          -0.98438225095004    1.54423842561481   -1.03886503466989
H          -0.90451138924211    0.61599126010545   -2.30703539329372
O           1.86535701130976    0.10686173453990   -0.59510515813795
H           2.49035864515467    0.04557596666710    0.13336318747150
H           1.25046571053267    0.81935828716929   -0.31996044437184
O           0.25643063690381   -2.02424473239735   -0.23999341198403
H           0.89588634339691   -1.32048820324408   -0.49039666535159
H           0.42829216697471   -2.18255151529023    0.71926095328348
O           0.56698953108393   -1.82835101410859    2.38375136421975
H           0.98319868279093   -0.94350379764318    2.37317502427057
H          -0.29396233212488   -1.68852547011336    2.78605687555415
O          -1.91102520792173   -0.78668643374518   -0.02003996735370
H          -1.68284453973064   -0.28676767299013    0.84076992791513
H          -1.87297757461410   -0.02542472485389   -0.78677017456065
H          -1.06062550731486   -1.39443544937925   -0.18311539483873
N           0.29801611406488   -0.23996038119432   -3.09716003380743
H           1.11608082531529   -0.07840045741686   -2.51785593079205
H           0.51819232121298    0.04932244385931   -4.04123805245191
H           0.12351372763488   -1.23748743342279   -3.10580388361669
