    26
        -50.45310610  Gyration_radius:  2.52586412228 Dipole_moment: 1.458
 S           0.90395271668000   -0.36685844298581    1.25628511324800
O           1.81520587375647   -0.77588220108572    0.19996019138728
O           0.27915497580389    0.91880462357833    0.96338566007957
O          -0.10179923551416   -1.38273529291556    1.54487781182685
O           1.72925442778408   -0.19658739116481    2.57018845888536
H           2.48707443868346    0.34264908315655    2.26995209663705
O          -2.02291273101611   -1.93985200138434   -1.59449505485726
H          -1.11701256021481   -1.53212319493111   -1.80751475855993
H          -1.90341520233495   -2.88959765262083   -1.65381010840347
O          -2.26864237467534    1.33915437634373    0.82707926337429
H          -1.27692646737641    1.26455634070642    0.85521464692542
H          -2.52737606161234    1.75860529238942    1.64980332725727
O           0.29500161212306   -0.94341908777363   -2.01804075218176
H           0.89209770208827   -1.02117072211322   -1.25146054669669
H           0.19374811045738    0.02956121519855   -2.14653675691858
O           3.62252966072741    0.88546726235910    1.07672001241806
H           4.49529549322700    0.48583570467281    1.09133144068066
H           3.06929663119047    0.32148381736308    0.49652461288430
O          -2.44321591744301   -1.19523989377937    0.75267455201233
H          -2.53932362383840   -0.17590866958306    0.73647859035534
H          -2.34387383921356   -1.51601056501176   -0.25212365266732
H          -1.48416580466066   -1.33433362550937    1.15302503741664
N           0.07047924091088    1.74134536566566   -1.81398510137868
H           0.27554112816943    1.62605539863983   -0.82289944255416
H          -0.84582337825166    2.16555374500089   -1.88641395268067
H           0.74585518455481    2.39064650577826   -2.19622070848581
