    26
        -50.45310624  Gyration_radius:  2.52596754179 Dipole_moment: 1.455
 S          -0.70389991578871   -0.94553631700776    1.06869030669915
O          -0.10639120774730   -1.96839625781072    0.22587256557922
O           0.22610057422088    0.14718976778366    1.33387557593471
O          -1.95945908313636   -0.44217005605496    0.52360431461669
O          -1.06372650055301   -1.59640505529303    2.44089389673000
H          -0.24011030540367   -2.07184733469276    2.66645409473242
O           1.22237158475122   -2.91027872987940    2.26114832176018
H           0.95372772569556   -2.65223893529913    1.35451719022224
H           1.19792223159483   -3.86958299077644    2.28882895854926
O           0.55086649520272   -0.70548819979021   -2.06151090396729
H           1.32116130808851   -0.21364167167226   -1.68981449142687
H           0.24551631423098   -1.26312729780570   -1.32258103991930
O          -1.19469431423522    1.00311647924939   -2.82149841728949
H          -1.83432315181874    0.50103231544753   -3.32998008171486
H          -0.47146831729978    0.34143917457379   -2.55384771151602
O          -0.20960121541395    2.63728463979006    0.78996313460522
H           0.04086137525151    1.70417645280099    1.02745549658574
H          -0.45385375192907    3.06482792908447    1.61295360133474
O          -2.12396929979569    1.74797741187156   -0.62573065877817
H          -1.75371842127951    1.50155612000189   -1.58736573982074
H          -2.14679922533719    0.82677532784461   -0.12528185224285
H          -1.38152300427738    2.25611741169822   -0.13687195168878
N           2.37193630631536    0.61611456105394   -0.56592346684565
H           3.30036199259995    0.26413952689291   -0.37107496192262
H           1.78301753271535    0.40290467575762    0.23736539212338
H           2.42969426334556    1.62406106222734   -0.64014157234020
