    26
        -50.45310623  Gyration_radius:  2.52597709646 Dipole_moment: 1.455
 S          -1.34163260813073    0.27903598095159    0.80852196077039
O          -0.03948029137227    0.90389722197511    1.01649186865683
O          -1.84069719766058    0.50984867363696   -0.53732552448776
O          -1.30113214967408   -1.13846962752725    1.14905954910738
O          -2.33964884357097    0.93246083925948    1.81505140928687
H          -2.46944005327302    1.82128247749228    1.42978346689029
O           0.96031426891491   -2.78615825188848   -1.30767824250897
H           0.35148785424288   -3.46097259584912   -1.61381299891564
H           0.61505029830684   -1.90836701374111   -1.68549468610108
O           2.10594643431879   -0.33713427487791    1.75345964894388
H           1.33114132839398    0.21570390047307    1.46381147257958
H           2.22389995481843   -0.16054779229529    2.68869859086579
O           0.00502133408389   -0.57617143720807   -2.17218299330430
H           0.68550903550660    0.12583841120513   -2.03973668083272
H          -0.76266770042504   -0.26324155722261   -1.65939853557432
O          -2.53567657827729    2.93851258083593    0.10564913136282
H          -2.23724147656589    2.14905501491764   -0.39278927896169
H          -3.40528363519201    3.16154626397096   -0.23447630954469
O           0.80812928225506   -2.44070479159982    1.16161379769157
H          -0.12017352138373   -1.95573172342309    1.21234017570873
H           0.93068128229006   -2.63974734429345    0.12822428827589
H           1.46863243158195   -1.69771783771398    1.40686135947805
N           1.63317284845805    1.39812133471055   -1.30557134580764
H           1.66172066311769    2.32271853129458   -1.71561806545625
H           2.56909109695698    1.16377431337458   -0.99911087995413
H           1.04327593227295    1.44316869353666   -0.47637118817142
