    26
        -50.45449801  Gyration_radius:  2.53015373933 Dipole_moment: 2.887
 S           0.36697987944477    0.41921144260018   -0.90530779723964
O          -0.77590402097214    0.64893968827347    0.02688184046801
O           1.59114920573311    0.23126921799830   -0.15003427387521
O           0.05612160018591   -0.70706352604499   -1.77067796385095
O           0.48272936347713    1.67740865475637   -1.76781060597261
H           0.99313631902211    2.34681771275075   -1.13818772361096
O           1.62044094917107   -2.38770523820888   -0.16845803712034
H           1.19849052601736   -2.51073244974919   -1.02424002444390
H           1.77348833517782   -1.41714181206462   -0.11892612694699
O          -0.60200256263002    2.82072332534602    1.60099463336859
H          -1.46309816813799    3.23691828282801    1.53748695937894
H          -0.66496997913356    1.99628594361674    1.07913018949673
O          -2.03366189059818   -2.22105356099184   -1.63136252647001
H          -1.20908838192026   -1.69249206568634   -1.79932766382998
H          -2.69525902448390   -1.88443600472108   -2.23816556750356
O          -0.05667882236834   -2.59941112095680    1.80531910420984
H           0.36449726141299   -2.09372520041515    2.50334877828735
H           0.60821247383302   -2.63886017154682    1.05700061147875
O          -1.99226574869032   -1.36208718948947    0.75926966976545
H          -2.14370943597153   -1.81819332396336   -0.14491269674257
H          -1.25869809344133   -1.91698671553727    1.24628617420488
H          -1.49878896868833   -0.44733326993110    0.48173010225175
N           1.72210308968922    3.02954721607529   -0.03358843568102
H           2.35058672070870    3.80884995007459   -0.17244544155208
H           2.23786190806719    2.21819182322838    0.29044304807676
H           1.02832744507249    3.26305839177750    0.67555377386177
