    26
        -50.45701993  Gyration_radius:  2.46200746256 Dipole_moment: 2.298
 S           1.56870796852617    0.21022686051678    1.13877278248489
O           2.28372311456286   -0.87586666113978    0.50904291724868
O           1.25061884333699    1.28258139072945    0.20077178204905
O           0.39272384235062   -0.20878375325441    1.88295306204540
O           2.56560653470027    0.82865853875987    2.20205970552230
H           3.39590098788067    0.56342093363526    1.82279854607335
O          -1.38561475261466   -1.64267610719011    0.64607276035125
H          -0.71450397940060   -1.12396937251192    1.15809290266324
H          -1.86549623560366   -2.16855692904888    1.28777481225315
O           0.73155144538983   -2.49719124927789   -0.91719113771061
H          -0.10779154713165   -2.40604423570984   -0.43930070590107
H           1.39098629957341   -2.00752507016408   -0.38257578441397
O           0.57896545795008   -0.96088247220880   -2.99200438670779
H           1.47629857171319   -0.88863839493673   -3.32116257340898
H           0.60863815782871   -1.63993506157575   -2.25308177211058
O          -2.30503779894651    0.61153593610804   -0.55988940525927
H          -2.13736523054202   -0.29262445210931   -0.22954474708293
H          -2.11165935224703    1.20999005886664    0.22215843852630
O          -0.23758852502692    1.13490036266269   -1.82299841795918
H           0.06565944452727    0.30341445950782   -2.35368291772687
H          -1.19643659072869    0.91389870711278   -1.36373542220370
H           0.40406201945850    1.23567426916027   -1.03115174619192
N          -1.34534158618672    2.00988995891223    1.46206233229848
H          -0.69848866082435    1.28467942170327    1.77277570284548
H          -1.83382128778358    2.36619154308094    2.27373670001258
H          -0.77429711077231    2.75763131836997    1.08724654230407
