    26
        -50.46448237  Gyration_radius:  2.45213328246 Dipole_moment: 5.470
 S           1.60141096001773    0.12350189440587    1.24735911517276
O           1.57552829106200   -1.22470353919969    0.67486908794833
O           1.96275189776886    1.11010761795639    0.24687383256865
O           0.39466754871911    0.44161003446580    1.97121331714963
O           2.77515052706048    0.11898651860826    2.30800874496157
H           3.52977630425673    0.10057204152777    1.73071784262609
O          -0.53591893512320   -2.17597660994848    2.03482844507470
H           0.30296623123686   -1.98785965195083    1.57591288951145
H          -0.64881227540152   -1.42468225676736    2.62515626925110
O           0.31526557699784   -1.58956915029488   -1.56287893742433
H           0.61244522109739   -2.42274907754777   -1.93207187876457
H           0.81611497167467   -1.47378511614551   -0.71324785270867
O           0.94343434924979    0.97486031459632   -2.14730370690537
H           0.70285609935018    0.02950156700175   -2.16692505775319
H           1.45106270778375    1.07691458547960   -1.30519713061615
O          -2.04748842723084   -1.46843954761511   -0.08850619176644
H          -1.35297873810743   -1.55147093045356   -0.76097410888603
H          -1.66564005052611   -1.88414361756551    0.71474223993063
O          -1.84643519016454    1.01005289738160    0.71588922473826
H          -1.48381840821123    1.73428503975239   -0.45499301187847
H          -2.07037004709398    0.08374028218399    0.41758830483454
H          -1.03789739424400    0.89826886303715    1.26557287034569
N          -1.16759436836481    2.26978748698484   -1.39052634007941
H          -1.92048440352644    2.26067934394749   -2.07033441343300
H          -0.29445983114461    1.74634232175890   -1.77488901624690
H          -0.91153261713774    3.22416867840050   -1.16088453765244
