    26
        -50.46448229  Gyration_radius:  2.45210632486 Dipole_moment: 5.472
 S          -1.44919677444003    1.15026136449903    0.84410553193795
O          -1.12943653302535    1.93844976162155   -0.33123231878781
O          -2.04892569459061   -0.13351695838593    0.47229586845797
O          -0.34808147846345    1.00193375600784    1.76436741858443
O          -2.57760187503337    1.94591704939385    1.61624083485073
H          -3.15739719063392    2.16618894215834    0.89623817654684
O           0.99915882055897   -2.24805760348742    0.54939025208176
H           0.36447072316153   -2.23972348765181    1.29830497123583
H           0.44733937127391   -2.13443989972068   -0.24058079701031
O          -0.89372734953336   -1.54474463719763   -1.37228409089515
H          -1.52861723585587   -2.19142826716386   -1.68457197310256
H          -1.36298054111766   -1.01740885020652   -0.67378899594883
O          -0.04281712239963    0.80308009717512   -2.40959718731462
H          -0.32049111019135   -0.11903554202497   -2.25288560542113
H          -0.52384109536940    1.32033537768107   -1.71801747421972
O          -0.90544503458468   -1.65238639450248    2.36929903051345
H          -0.49605313248299   -0.93782319099289    2.86676286102365
H          -1.46689004055778   -1.19203722430268    1.71925185526874
O           2.00054036310397    0.13070853694225    0.96067817255218
H           2.20498004531880    0.65881340004726   -0.34549006937696
H           1.18926407511310    0.54585857044331    1.33200377375288
H           1.75248654421371   -0.82922331909789    0.84161466631798
N           2.32391404351523    1.05648252691161   -1.38942516545257
H           1.35990753222005    0.94616677300423   -1.88187949205568
H           3.04116200226796    0.53541602362471   -1.88249552503412
H           2.56827869753243    2.04021320522490   -1.34830470850587
