    26
        -50.46496725  Gyration_radius:  2.47806239971 Dipole_moment: 6.801
 S           2.10250212512792    0.52612817430441   -0.27631755623591
O           1.07099850713840    0.75313495453345   -1.30633596551311
O           2.05487902800897    1.58964773442023    0.71466254707355
O           2.05020632801565   -0.80169854384691    0.25501104329589
O           3.49071548593529    0.70732696261381   -1.01890477363317
H           3.65240609115856    1.63326590050230   -0.87447438353579
O           0.14776053008855   -2.72869864735983    0.28431654546200
H           0.94427474376785   -2.18423337672929    0.40295464243232
H          -0.14545077198382   -2.52595801554020   -0.61498972604450
O          -0.41814748205651   -1.30039733512378   -2.07744806167006
H          -0.17531024444864   -1.52847525868296   -2.97542449380868
H           0.19495399150088   -0.58308336698603   -1.79801553282688
O          -2.57186657748547   -0.34138901529027   -0.64203222511126
H          -1.82789880418272    0.91948381176106   -0.41966381382023
H          -2.00119466495231   -0.81909721871723   -1.26793588679467
O           0.00727509565254    1.08783371459877    2.21332295263877
H           0.85671070492204    1.22190571211656    1.72119989423455
H           0.19566885259824    1.27145047609205    3.13493920680884
O          -1.59426989774361   -1.21330584942800    1.61875135735048
H          -2.38169567712868   -0.75899422318232    0.24405022971534
H          -0.98792588238759   -1.90064152173799    1.25580947823433
H          -1.01835794101815   -0.50946580429633    1.94641628092212
N          -1.10460752094253    1.71694715548956   -0.18831068784721
H          -0.90078201761026    1.68056531672648    0.82384335590976
H          -1.42985704667576    2.63465035124121   -0.46927152084461
H          -0.21098694527109    1.45309790247810   -0.68615288640834
