    26
        -50.46327893  Gyration_radius:  2.36775239032 Dipole_moment: 4.811
 S           1.42002864112640    0.26223057716621    0.20748663353856
O           0.25497429035162    1.06368262181979   -0.19431617496700
O           0.97389662726823   -1.03727911913787    0.71835332877559
O           2.34195957519478    0.09777968486281   -0.90770744303712
O           2.13650409130103    1.01152163522195    1.33509832895280
H           1.35713891319811    1.29909922122484    1.94468340227550
O          -0.25106888447775   -2.17923579267651   -1.30397817997872
H           0.30369801122638   -1.99286885333365   -0.51249831023380
H          -1.07058725994486   -1.65538897890254   -1.12695687797548
O          -1.97285680740228   -0.36149984585061   -0.43068575962053
H          -1.20858756372835    0.23981534366216   -0.29775911984535
H          -2.18225426424233   -0.66220200521064    0.46264205507530
O          -0.54358237403809    1.21094385487928   -2.69991419541351
H          -1.45483147931002    0.92397829121206   -2.58526839771208
H          -0.20687645536483    1.38029257842839   -1.79012196153176
O          -1.17398171803258   -0.98279744404499    2.21796596374646
H          -0.35012070357066   -1.04014875594882    1.67586225072859
H          -1.18024477088262   -1.76884241814401    2.76631335268149
O           1.06396974973391   -0.75600298482823   -2.86726005013623
H           0.49156768239378   -1.47612639797667   -2.31656135839502
H           0.42898490722511    0.03850696315264   -3.00268728984104
H           1.73103535332351   -0.41026032661876   -2.13964247243111
N           0.01912289111922    1.64686151229829    2.63858013419540
H           0.03327833161136    2.11130153216500    3.53695305179400
H          -0.52767246953629    0.79047548082328    2.71105837915034
H          -0.43349430454517    2.24616360575779    1.96036070020288
