    26
        -50.46327890  Gyration_radius:  2.36770284025 Dipole_moment: 4.810
 S          -0.50721725701276    0.97098250358104    0.96330373865791
O          -0.13486163962765   -0.31705355913758    1.55574377421594
O          -0.06229181605900    1.02026852951299   -0.43690716830244
O          -1.94337451570043    1.19392531855679    1.05577158524308
O           0.21625296291295    2.08677388983821    1.72358935304817
H           1.18656564260665    1.99325284731440    1.39019304948598
O           2.23125699606637   -1.22363926262288    0.88790479458454
H           2.51824313842443   -1.84456094105758    1.55927036615547
H           1.34334713385480   -0.90389824347010    1.17981393819358
O           0.58738200406409   -1.36007936746671   -1.41818177971944
H           1.37009806251710   -1.63697107194219   -0.92519077835919
H           0.43168210675860   -0.44266864085135   -1.10601779800026
O          -1.68948322268264    0.49171182933084   -2.43947869518627
H          -1.07490426794354    0.89793582446421   -1.78595586364758
H          -1.18420977568901   -0.20919081528836   -2.86292425367192
O          -1.42078301375688   -2.11614356417760    0.14010034232191
H          -0.73641269754294   -2.07140088870596   -0.57181521220062
H          -1.01298095200189   -1.59593461989237    0.86949848115972
O          -3.08726645314482   -0.37994961398554   -0.49856282493595
H          -2.49128208417828   -1.23407057877295   -0.24461320288748
H          -2.75587022500824    0.32755644143898    0.19702716265703
H          -2.69803156422332   -0.04012889226367   -1.38515183432589
N           2.52931673235721    1.67305118103355    0.69134879858834
H           2.68814619146942    0.66944216302275    0.76318045592673
H           3.36608262934312    2.16488578271055    0.97587135149152
H           2.33059586419330    1.88590375882359   -0.27781779050356
