    26
        -50.45667388  Gyration_radius:  2.41281681493 Dipole_moment: 4.278
 S           0.22069645846252    0.66160500591459   -1.69572747079809
O           0.82638996070690    1.51558431571495   -0.68266988306764
O           0.95533672888131   -0.57829829695122   -1.86811873235230
O          -1.19631489130602    0.45911124175056   -1.45530666867300
O           0.33489711217859    1.42751615523797   -3.07241469784422
H           1.18044630807878    1.11924037556028   -3.37797186694437
O          -1.07766149884380   -0.01716848645759    2.19216094780164
H          -0.10188885872556   -0.02096957464848    2.13089993222355
H          -1.34029909335842    0.88536195598025    1.84376740508173
O           1.51820603047544    0.35026222158993    1.54246251166415
H           1.29746234747554    0.79791783164185    0.68675656189716
H           2.07105251299529    0.96269569329877    2.03040362920883
O           2.32825604839782   -1.94516741350770    0.22832142334721
H           2.16638792573971   -1.26113966879620    0.89505110255704
H           2.23281503495877   -1.49066587828734   -0.61957973679967
O          -0.04326876666420   -2.77302132763337   -0.69072274379660
H           0.76015408729746   -2.82091531486282   -0.13218618145710
H           0.21320404946707   -2.11820300730687   -1.37022868181034
O          -1.86187421639284   -1.30988234461480    0.22398449989074
H          -1.16252619943514   -2.03653412125189   -0.05315539955353
H          -1.55309425564301   -0.83410009846111    1.14517584652018
H          -1.72810085986174   -0.59068763613412   -0.48394554729702
N          -1.50739340026113    2.22166630354383    0.85607362979755
H          -0.68359191999204    2.13836739278548    0.26084551027601
H          -1.54192222202494    3.16668675884193    1.21739790261916
H          -2.30736842260629    2.09073789705397    0.24872670750964
