    26
        -50.46195496  Gyration_radius:  2.47356822049 Dipole_moment: 4.198
 S          -0.32138035000946    0.69091449616346   -0.58089771883525
O           0.76223317792401    1.30094411173046   -1.32265111515838
O          -0.06759861609360   -0.74727236963937   -0.35286209830227
O          -0.60792098129500    1.34379117732387    0.68515416494832
O          -1.62099176994021    0.77308612961300   -1.42177739700614
H          -1.29829770546786    0.66897686363865   -2.36755477655619
O           0.03438344899928   -1.37038955097774    2.07256355453752
H          -0.94615943654365   -1.00648999080856    2.30460209630442
H           0.04701612266378   -1.25818613105715    1.05006614725503
O           0.38447429302119   -1.92252771904286   -2.70053498402310
H           0.31687523962000   -1.54055036737101   -1.80141988319437
H          -0.11350855105225   -2.74125568367456   -2.68425514386052
O           2.81340688277097    0.68913276016067    0.23821681015936
H           2.08922355247989    0.88330863012274   -0.39370957431568
H           3.53888102489371    1.26817114072505   -0.00263357789175
O          -0.36070971395897    0.48620935980837   -3.62874479884489
H           0.33966408255703    0.98305924145946   -3.17972506608648
H          -0.08464960224987   -0.45062559214509   -3.55884683772749
O           1.31245293542637    0.74813744703189    2.42876970563979
H           0.66497249415336   -0.57882168619874    2.36782936639665
H           2.05717339564481    0.69685334274949    1.79000197658783
H           0.61529844124181    1.21918830275218    1.92692834237894
N          -2.20206372705641   -0.21734169267309    2.32577440043892
H          -1.86123931486781    0.52009586497174    1.69766644661351
H          -2.47494176010396    0.20589639843333    3.20328157356867
H          -3.01659356266511   -0.64430445326913    1.90475837702628
