    26
        -50.46555171  Gyration_radius:  2.45728893703 Dipole_moment: 6.210
 S          -0.70991355730087    1.90802837978624   -0.98648080532439
O          -1.29855408081995    0.59908019880498   -1.22486816454874
O          -0.64647283409176    2.26087466752188    0.41494329133626
O           0.57978593859832    2.05211817068487   -1.64626330513362
O          -1.68705029727461    2.95302645524302   -1.66621947315392
H          -1.34369222051952    3.75804149544115   -1.29606412083997
O           2.26982998809606    0.41855980962956   -0.67743666754225
H           1.60492900380862    1.08896946937652   -1.01828473174148
H           3.12842946559721    0.81921914496896   -0.82341444969039
O           1.61710269737779   -0.79823448998937    1.61277840445748
H           2.35969377498462   -0.70483354528425    2.21069835527461
H           1.84817412433524   -0.30231607052009    0.79388472809396
O           0.43467405469696   -1.24222637991678   -1.98718578399251
H           1.26270951457837   -0.78379759133231   -1.78278607999163
H          -0.25640636339448   -0.54671317296925   -1.90656105801072
O          -2.30094482555502   -0.90765738023547    0.72207290148456
H          -1.17695339267454   -1.85221529554866    0.49677726684518
H          -2.15362260377654   -0.31411001489218   -0.04440691465586
O          -0.81311592881075    0.49218417041735    2.38694466890899
H           0.05040164889377    0.06829471889803    2.28825077030264
H          -0.79119290722786    1.25090495160043    1.76749469371293
H          -1.94619339255890   -0.39453053501437    1.49066230462634
N          -0.23160162779861   -2.37220965181469    0.28467368004097
H           0.05482804677382   -2.05031673760380   -0.69435097249467
H          -0.32996124604147   -3.37874749396672    0.34068007674719
H           0.47511702013380   -2.02139327327742    0.94446137527690
