    26
        -50.46555137  Gyration_radius:  2.45749354125 Dipole_moment: 6.209
 S          -1.60589345347599    0.88712602863422    1.32514674131738
O          -0.99958445825875    2.05066065034126    0.71575385995152
O          -1.83098765433488   -0.20300269128923    0.38822754201980
O          -0.87877974400391    0.44560396362617    2.50642962432060
O          -3.04189360919155    1.33998210053696    1.81711195351480
H          -2.81629202431609    2.16462760593152    2.23193739878952
O          -0.21212157899820   -2.26359440152914    0.71658025976811
H           0.44310670376392   -1.86620553912460    1.30843797520384
H          -0.95122495201346   -1.61449812211923    0.69863515963342
O           1.45705433947719   -0.34138153258966    1.88396912345947
H           1.99002747493078   -0.21320538723744    2.67044652896988
H           0.54877530394517    0.01490741039318    2.12051054169071
O           2.33733391849999    0.26735763237418   -0.56628026063463
H           3.21313485723535    0.64400759000171   -0.47259284437031
H           2.00326866390437    0.09597896498197    0.34427044952712
O          -1.31998290555730    0.00201728961188   -2.21197932581993
H          -1.72759367850414   -0.05402254879513   -1.32189080575430
H          -0.21574581685072   -0.97256338525789   -2.01708499167363
O           0.30049328140338    1.98765561928704   -1.59777026613642
H          -0.19117146478409    2.16447307769251   -0.76902121104108
H           1.09689273882109    1.51668798078578   -1.31670728095444
H          -0.81068039998421    0.85038661550022   -2.18623148041847
N           0.62319495346144   -1.59786166711583   -1.67944384039880
H           0.85667027857841   -2.31741115776007   -2.35298196259740
H           0.30997585317152   -2.01012185300773   -0.74340683189224
H           1.42202339304210   -0.97760425386060   -1.49206606649860
