    26
        -50.46195498  Gyration_radius:  2.47367746167 Dipole_moment: 4.186
 S           0.94049263090107   -0.16574920539810   -0.07122836697801
O          -0.35848392414163    0.03605247172476   -0.74696445153605
O           1.69843802009365    1.06682380136706   -0.01833758671369
O           0.72549473138459   -0.77996688880262    1.22795394925568
O           1.71603566112204   -1.20190490264166   -0.92409773000377
H           2.15944654996875   -0.64261746019811   -1.63137790641449
O           2.63714831277667    0.59300328261302   -2.49568130527988
H           2.64346403641491    1.14658386961971   -1.70037691183172
H           1.82144288299774    0.85142059144388   -2.97181514276624
O          -2.33169290900400   -0.49155900203300    0.70517182549149
H          -1.62569398378146   -0.21379212749371    0.01031993599688
H          -2.03783427986613   -1.50212214908535    0.90070444722377
O           0.08081615851717    1.09558982948461   -3.15164491421224
H          -0.48850074874090    0.61780334328974   -3.75678503271465
H          -0.15699746721730    0.79240759873407   -2.25146483672524
O          -0.04222464260982    2.64610784610719    1.20396198825425
H           0.44264234077692    3.40354248663022    1.53669430950589
H           0.60446926141998    2.10972343825433    0.69844253865918
O          -1.09440650608778    0.62440042761944    2.56794695020068
H          -1.99073318372839    0.03105562786079    1.55548271068092
H          -0.31453490664853    0.07718399813394    2.33935893237098
H          -0.86185809085675    1.51078293715998    2.21375027249386
N          -1.23990304944423   -2.73023945472134    1.14657864756339
H          -0.33692880945557   -2.24519394754054    1.20814435612282
H          -1.19062422348365   -3.40201151289921    0.39204835999144
H          -1.39947387143755   -3.22732488965035    2.01321497142251
