    26
        -50.46662467  Gyration_radius:  2.47255931888 Dipole_moment: 5.605
 S          -1.49527142689238    0.14369352185286   -1.59560539829641
O          -0.04784519189893    0.39550294476553   -1.67829522892342
O          -1.86204554907992   -1.19270809049308   -1.98033171947804
O          -2.02104127102360    0.60207566423941   -0.33001662860850
O          -2.12446318426966    1.08863739204300   -2.71751420641978
H          -2.62742692351346    0.45953592784282   -3.22416964516752
O           1.65752358039418   -1.57574604772364   -1.21256375739975
H           1.03237910244386   -0.85925065375365   -1.46355615287442
H           1.92399318983210   -2.00327503834656   -2.02708590821995
O          -1.09037965578316    1.60626785415966    1.86248751725822
H          -1.79812865642887    2.06692494382059    2.31459477810429
H          -1.50316135751454    1.18501234925172    1.06502517792982
O          -0.67294589009373   -2.11972443687251    0.24965732539483
H           0.18784323316670   -2.26062766003030   -0.16876275505971
H          -1.26896642823731   -1.85743673800131   -0.46850853943466
O           2.43434814893794   -0.31956280303230    1.14359351747522
H           1.76924723728529    0.93447578974298    0.65966832104871
H           2.36601024509934   -0.91566379840214    0.38069868633251
O           0.21699031893740   -0.83135568938909    2.45671570065091
H          -0.28154504812194   -0.00269964897080    2.46236215665817
H          -0.21849085090796   -1.38760639052398    1.78147047047819
H           1.71809777229849   -0.61123517107604    1.76966926202933
N           1.10441221453202    1.71359460414844    0.27549164862794
H           0.61815638177718    1.28379238983636   -0.56101604669873
H           1.60485533851514    2.55610326776373    0.01784677586611
H           0.37785467054585    1.90127553714483    0.98814464874074
