    26
        -50.45701983  Gyration_radius:  2.46194958353 Dipole_moment: 2.301
 S          -0.01717091585516    1.02744648548369   -1.65661808155266
O           1.17946806554013    1.08806861264549   -0.82274821807235
O          -0.04487401633314   -0.15117367277182   -2.49178095890408
O          -1.22267324748367    1.22213590633581   -0.86854423132314
O           0.06572035053579    2.26048882617180   -2.64638552774281
H           0.45733808680991    1.83878470248389   -3.40295249749645
O           1.55004947935990   -2.79162707853640   -0.11855616963487
H           0.63202402067726   -2.73251905257285   -0.52092013029601
H           2.15068390610660   -2.94031501256074   -0.85062965208150
O          -0.10119042536099   -0.07090708457675    2.44631609447408
H          -0.84661669110793   -0.45518759546498    1.94495525175300
H          -0.14917405728357    0.91426142553386    2.26144036033558
O          -2.02149641010630   -0.73448352746432    0.64235975536835
H          -1.76464516124781    0.02078665486487    0.05487632542570
H          -2.96722543032636   -0.65948809138607    0.77868686302029
O          -0.75864029657839   -2.36494405807359   -1.20285059432372
H          -0.53951707649330   -1.61388505944357   -1.79307372149792
H          -1.32827831694698   -1.99268185509136   -0.51143855163008
O           1.84802516094789   -0.52928222529549    0.98531302623090
H           1.76574103622723   -1.47561946576440    0.58199925158007
H           1.63687050608788    0.13576283055411    0.23552908911225
H           1.04117567482435   -0.39251791170185    1.69903822690366
N          -0.14965750997032    2.39176990710060    1.49854971897298
H           0.80062228896203    2.66590622062746    1.28042193422165
H          -0.63238770145718    3.20203720418989    1.86572654150411
H          -0.58417133953057    2.13718291469933    0.61128591564627
