    26
        -50.46662475  Gyration_radius:  2.47247781553 Dipole_moment: 5.608
 S           1.72069903916596    0.76602086828466    1.11965608030137
O           1.28949197854286    1.03411495124033    2.46532001394081
O           1.45555771146277   -0.61579991195137    0.68895064104847
O           1.27691719762874    1.70683748486694    0.11658497988622
O           3.31291457289388    0.86657318068740    1.16364088960734
H           3.45077568850193    1.17690670353370    2.05244814067224
O          -1.26704211094603    0.83764262662823    1.64571448480928
H          -1.34163250137567   -0.10800857696527    1.83559706019823
H          -0.39543304042735    1.09970953721948    1.97956654018834
O          -1.81914291695436   -1.79480981024410   -0.89776314750590
H          -1.62180871203696   -1.98749645817737    0.03280583525010
H          -0.47820404277646   -1.43669625882140   -1.46592333754051
O           0.02974897886494    1.62215636383684   -2.14587165031646
H           0.47385275203482    1.72426929443790   -1.26486109077187
H           0.22564885054798    2.42193288929073   -2.63525306331584
O          -0.66085279214246   -1.90065657065792    1.62797688353536
H           0.16824766973707   -1.45960627947274    1.33610214675538
H          -0.43298669262028   -2.43272188799461    2.39101346497836
O          -2.33490306214560    0.78078993608283   -0.84018704966505
H          -1.66059592999771    1.19565663536370   -1.39556986995832
H          -2.20781894669528   -0.87888970974272   -0.89935730041941
H          -2.05430314663208    0.95805791444002    0.07898174431466
N           0.49785281406136   -1.01355532330760   -1.72067823201429
H           0.34734110762342   -0.08291397539083   -2.14743539755061
H           1.03677110856497   -1.62193670577760   -2.32573479021336
H           0.98890441513967   -0.85757689740004   -0.79572398620736
