    26
        -50.47076544  Gyration_radius:  2.47900045906 Dipole_moment: 4.775
 S           0.17921400337711    0.21331624385224   -0.90644479991491
O           1.31981153995249   -0.53859550022046   -1.38555474963838
O          -0.59424372624868   -0.56239058705474    0.08261950911730
O           0.52064286546738    1.51572237423890   -0.36323707390412
O          -0.78961880839391    0.47616084061812   -2.09504038598649
H          -0.68812026112416   -0.33168462607121   -2.68270027971203
O          -1.34496044539225   -2.84444460058516   -1.05790441361560
H          -2.29708698034443   -2.86634493513541   -0.94908073192754
H          -1.02739127221859   -2.06553167440652   -0.55445270978113
O           2.47994885551699   -0.85490332044781    0.98375542947114
H           2.04467269056715   -0.78482435148341    0.10917449496972
H           3.37206253389335   -1.16142482914636    0.80881355703863
O          -0.21694563634780   -1.74372206290429   -3.23904047268058
H           0.66083210225547   -1.59644767451071   -2.85546279154589
H          -0.66114876688556   -2.35668449082386   -2.61736735004539
O          -1.70781948444578    2.59676782446620    0.53843889873572
H          -0.86154703701371    2.34351848982556    0.10614030682164
H          -2.38633269862983    2.45810577781031   -0.12398634431359
O           1.77619500599636    1.51170823024918    2.03134892945987
H           2.18371893026403    0.64082001683255    1.84283446644876
H           1.54661352684997    1.84465440030229    1.14631481640248
H           0.29961991229528    1.13540341247899    2.38127471029704
N          -0.72239830409795    0.81563106958513    2.28033423083495
H          -0.70134537132046    0.11850951083801    1.47711998792713
H          -1.27822531305420    1.61303776423626    1.90962072688249
H          -1.10614789090533    0.42364270745334    3.13248202865778
