    26
        -50.45268469  Gyration_radius:  2.57184379368 Dipole_moment: 2.985
 S           0.38158327526019    0.59965827679581   -1.04491364828874
O          -0.83067802632311    0.90854518610971   -0.26002468080817
O           1.52038058530060    1.34507258218142   -0.53825299188270
O           0.61737261988735   -0.83247397960674   -1.08248658848353
O           0.08692416770414    1.05220582836489   -2.50140638796060
H          -0.03795177415122    2.03380677019311   -2.40056994466642
O           1.31312000239555   -0.82381668826126    2.62875105251083
H           1.92707586521034   -0.83688507408670    1.83700469957510
H           1.68219416747304   -0.18175093482374    3.23777009623358
O          -2.30576789691839   -2.32761290877250    1.13444182697212
H          -1.97081766883531   -2.43453629346578    0.20259372470017
H          -3.24264829325584   -2.13722423242906    1.05674801334515
O          -1.42008562679205   -2.44274893827291   -1.32398302588243
H          -0.68716432107685   -1.78091523936402   -1.29719467850195
H          -1.02098754780207   -3.25635649630465   -1.63773125431486
O           2.82297890160760   -0.68778153773628    0.51344149529357
H           2.53710337252802    0.18628161508275    0.17226967927103
H           2.40844871832627   -1.30027654355902   -0.10560489442731
O          -1.05260626838087   -0.24682817338981    1.89691028947430
H          -0.10436136873232   -0.50371600116233    2.20452586290275
H          -0.95787779070610    0.29080279757416    0.96580711432157
H          -1.54866874735427   -1.11636930178932    1.65599826275711
N          -0.05664135215156    3.47676665453755   -1.54908629282234
H          -0.88934402393833    3.43062287252453   -0.97547414992314
H           0.10934563675689    4.44126902673127   -1.80714395816583
H           0.71907338396450    3.14426072293786   -0.98238961123214
