    26
        -50.45268423  Gyration_radius:  2.57184888426 Dipole_moment: 2.983
 S           0.82141037774777    0.71900837650563    0.63387898738232
O           0.64219663069165    0.69243919345126   -0.83182253973762
O          -0.06844240845419    1.69451917445515    1.23860564282553
O           0.66303070845759   -0.61089865397452    1.19429307753900
O           2.29250611999888    1.14895538404720    0.88710344708038
H           2.31771487208868    2.06639531876242    0.50352285458820
O          -1.70278526612184   -0.00734056286749    2.40807495009521
H          -1.21546505042206    0.78535024470962    2.09759037808763
H          -1.00903337943310   -0.67577762524228    2.45330833149074
O           1.64531933976250   -2.65159699561404   -0.09833363388244
H           1.71281108680132   -3.32880249558640    0.57735561584841
H           1.35151307756860   -1.83462406571107    0.37321486941965
O          -0.20310383329712   -2.86851845007614   -1.93597444984331
H           0.27180126706601   -2.91184812303070   -2.76820997198283
H           0.49395965226999   -2.84754820778804   -1.22478297007300
O          -2.98864409787630   -0.58779471689627    0.22143586093698
H          -3.64699263376461    0.10349735012538    0.13161168950132
H          -2.53275707033908   -0.42112113770126    1.09808062909789
O          -1.28643686134505   -0.58029443425432   -1.66723477041438
H          -0.45068235559841    0.00591175839351   -1.31721973026749
H          -0.91525381888483   -1.53313070885558   -1.78789305571632
H          -1.98340424263576   -0.60966263382941   -0.91010991380058
N           1.64911155081672    3.42422174649162   -0.21464122290922
H           0.78801379743945    3.26477740618510    0.30153779006828
H           1.47847240209703    3.15344647649072   -1.17490855805423
H           1.87514014536547    4.41043638180570   -0.18848328728433
