    26
        -50.45671242  Gyration_radius:  2.49562211064 Dipole_moment: 3.463
 S          -0.05251995421831    1.12791848322935    0.83079033835067
O           1.02676645178771    0.14843328018219    0.96639235275928
O           0.01502082849582    1.77340877672001   -0.47500089407327
O          -1.34991353208608    0.50339927442964    1.06594239239837
O           0.13059728203020    2.19992690431284    1.93362117296428
H           0.99037417905731    2.62644926653143    1.67275121768062
O           1.44796198146543   -1.23750930145576   -1.22689960102626
H           2.29718098587037   -1.01914507664319   -1.61269897250644
H           1.35727203176069   -0.68122378233798   -0.41522306245275
O           0.13041830274379   -2.40116937069548    1.09891864776866
H           0.32655604252345   -1.46141780879843    1.27691459869387
H           0.71430323188971   -2.63806256564761    0.37020150946831
O          -0.68276347887871    0.02528735709711   -2.29765357334847
H          -0.43647342989290    0.82221738220139   -1.76915387627012
H           0.03380389215541   -0.61336477756866   -2.10398934232525
O          -2.28728443874287   -2.81624662518793    0.17273006452912
H          -1.37068839489580   -2.70336493647797    0.54751525716760
H          -2.86567799713539   -2.94556782128423    0.92665204736799
O          -2.61805621557126   -0.50707474297318   -0.81398103334183
H          -1.88741668452739   -0.34905225727711   -1.56434133631785
H          -2.55741879672799   -1.49262988508669   -0.50936723292252
H          -2.20174054826909    0.00651741183305   -0.00786086873061
N           2.31032276840208    2.93059773728082    0.69683805805891
H           1.74011383292391    2.70446641931971   -0.11379736754486
H           2.99326619708280    2.19470377615647    0.81931609688471
H           2.79599546275241    3.80250287212849    0.53138340676833
