    26
        -50.45701776  Gyration_radius:  2.46308440889 Dipole_moment: 2.267
 S           1.75042414659371    0.67145946389080   -0.54672550580992
O           1.73877482573174    0.20592066972189    0.83090904403657
O           1.96752472079373   -0.37697116854822   -1.51701116805798
O           0.56863414512700    1.47332259015705   -0.84440688913518
O           2.99531302750547    1.64160893902194   -0.67714336480350
H           3.31837289978977    1.37575745177409   -1.53046951248919
O           0.09045559211387   -1.70226982724804    1.44906312231395
H           0.75264084290371   -0.99431897415657    1.24265274331891
H           0.43403396202405   -2.17903558833892    2.20623229482958
O           0.33137282364539   -2.45023416603595   -1.20391461225614
H           0.18783888042716   -2.41860154496801   -0.24496870339507
H           1.01442164783988   -1.77201171142849   -1.38829574597665
O          -1.75144614737193   -1.37644319564377   -2.29875154876972
H          -1.50790170590414   -1.21672048933818   -3.21192845624241
H          -0.98928417585222   -1.88927645504285   -1.89383307736329
O          -1.93239342284534    0.10913031582559    1.50550139574861
H          -1.35589089495196   -0.67873691643158    1.54979436994201
H          -1.36036296552626    0.86388284096612    1.83834718728213
O          -1.83629648824365    0.73029472535103   -0.89116542941423
H          -1.86870142528763   -0.12107346900623   -1.47300074823133
H          -1.98497253751771    0.44006260874135    0.14577482463257
H          -0.87275153964156    1.07359225993454   -0.91956339931228
N          -0.15043106086051    1.99167582828245    1.99757423534983
H           0.64605973144113    1.45200170131296    1.65797775578316
H           0.10393402424167    2.40505117596130    2.88575669763823
H          -0.28936887617983    2.74193292515070    1.33159448037019
