    26
        -50.45153978  Gyration_radius:  2.45958797101 Dipole_moment: 1.665
 S          -0.31456710948032   -0.83847622245555    0.23650642776842
O          -0.04987804007876    0.56534393895360   -0.04269978910452
O          -0.41658386032081   -1.63958293501967   -0.96221073396647
O           0.67622364445746   -1.37745856581107    1.18534917426649
O          -1.65919610155906   -0.89789365319001    1.02551135741985
H          -2.42719896303820   -0.68301479984091    0.40995579832141
O          -0.40098748431535    1.72271179878894    2.23221940313342
H          -1.12368739963464    1.22008371761304    2.61641812356359
H          -0.37131679861339    1.45531958899683    1.27812073233938
O           2.21144492938858   -1.11302919886887   -1.16199911983363
H           1.25385168841768   -1.26148080310499   -1.25705527255970
H           2.50452673171851   -1.81858635757632   -0.57879555822462
O          -3.52568605780813   -0.38097478809684   -0.67420693891980
H          -3.80052177642651   -1.23314789717176   -1.01962766017395
H          -2.95943560499550    0.03597803844020   -1.38607729381724
O           3.05067542045646    1.06686371767256    0.17292599452998
H           2.63204361091932    0.40114113578349   -0.42031807758355
H           3.99835598327241    0.93139022368094    0.10839454601793
O           1.81182696208838    0.46676824845535    2.32708620388935
H           1.01001559774183    1.09317667215088    2.44145993478332
H           1.33371239308629   -0.41949824643905    1.89101714328362
H           2.34920448325513    0.82092320524558    1.53156543734560
N          -1.71092571676147    0.44905271299625   -2.40417627454099
H          -1.69061445117260    0.67099003913881   -3.39184304255366
H          -1.18023476062115   -0.40658545114278   -2.25236911512528
H          -1.20104728998197    1.16998587080481   -1.90515141025480
