    26
        -50.45153994  Gyration_radius:  2.45962764896 Dipole_moment: 1.655
 S          -0.31691542900636    0.86823616325250   -0.06675337907540
O           0.01311415103532   -0.51636408106523    0.23764262235675
O           0.78359561787140    1.77356871345722    0.17465041586494
O          -0.84833486848198    0.98871763727715   -1.43639160873335
O          -1.52656098839473    1.25583455179361    0.83905107737890
H          -1.22395158284692    1.34126032481818    1.79613346969891
O          -0.60079536123267    1.48764649156560    3.23270952171698
H          -0.36094633152477    2.41207485701878    3.32740895953051
H           0.25822188409298    0.99107087861028    3.10272765356133
O           1.88338040688072    0.49805421084578   -1.92036070241826
H           1.45193229391512    1.02221709346428   -2.60078920194413
H           1.63917163328321    0.93778421186264   -1.08668888243550
O           0.88989755744833   -1.95137353345509   -2.42414371708374
H           1.28570086095240   -2.10331016805475   -3.28490208372188
H           1.31002303212939   -1.13685766040767   -2.06318608969100
O          -2.26050858768757   -1.72532243421638    0.14628303851187
H          -1.35212016826122   -1.38951476404371    0.35771261164649
H          -2.86505139326546   -1.06703106596612    0.49804922873053
O          -1.55122963617286   -1.21269271840147   -2.24472754034417
H          -1.95061199366008   -1.57516691076359   -1.37438509496606
H          -1.29490118295099   -0.18570827314405   -1.95406684643432
H          -0.62437811400598   -1.63533449973210   -2.33994147235264
N           1.64363378972516    0.32294216803656    2.47074233305150
H           1.34465895307017   -0.56336607459419    2.07852578233824
H           2.57204762162573    0.20303556932071    2.85656600031363
H           1.70092783542317    0.95959931254143    1.67813390447901
