    26
        -50.46564178  Gyration_radius:  2.41965522566 Dipole_moment: 2.426
 S           0.70994971580354    0.53799559335790    0.94417495080940
O           1.84296621965272   -0.11918495780570    0.31527704192532
O          -0.04967687011865    1.31786349946318   -0.04752321232119
O          -0.16721725695986   -0.40760701038852    1.62424087421414
O           1.21903912471399    1.53338852574483    2.01150675913839
H           1.83672933664743    2.10998491846108    1.47596921555611
O          -0.79323121219892   -2.65539949674286    0.44669271487719
H          -0.52822975105786   -1.84739186662775    0.95212929609224
H          -0.86178084782546   -3.36147199704397    1.09086124849800
O           0.96437630802207   -1.80931899045171   -1.48593639872859
H           0.43890321719715   -2.40790298268877   -0.92828166712282
H           1.46720539976971   -1.24647426832324   -0.85031382361337
O          -2.67375991771083   -1.15685847737005   -0.86108847571723
H          -2.19151015659545   -1.88703664390496   -0.43118810955731
H          -2.84073484673953   -0.49642414540141   -0.14092489389071
O          -2.55827603143160    0.64407764026473    1.06925427018275
H          -1.75524368087630    0.25432008085741    1.46697872562438
H          -2.24900844812369    1.45777461102203    0.66041618520069
O          -0.75515801531072   -0.05595708670510   -2.02052077550025
H          -0.46826740640297    0.60324235612648   -1.27260485761104
H          -0.02720268787563   -0.80793847124217   -1.96895364581296
H          -1.64452551102143   -0.51223233710894   -1.64009832395190
N           2.68063725451772    2.58920102642075    0.14472050245640
H           3.56669882124737    3.07488854555422    0.08962529521116
H           2.02935190403758    3.02371645219894   -0.49626284902340
H           2.80796534863622    1.62474547234704   -0.14815003692782
