    26
        -50.45399902  Gyration_radius:  2.5718682484 Dipole_moment: 2.551
 S           0.80588987386808    0.64352199419881    0.04799192526790
O           0.46852046371861   -0.74256171392338   -0.29468832369343
O          -0.15770473042032    1.57441584614847   -0.52332015092951
O           0.90226882995259    0.81121686745938    1.50221272236043
O           2.20152180677217    0.93926113099443   -0.51913058112267
H           2.14725339974610    0.56868229588973   -1.48941195858369
O          -0.25875034840300    1.87068009886490   -3.17437625101655
H          -0.28507839427698    2.81308804472788   -3.34652132110742
H          -0.29993867461978    1.77897046962848   -2.19964448843827
O          -2.44099621361563    0.05870552790313    2.73019451254221
H          -2.54270857853122    0.98389171569002    2.96237204490083
H          -2.45532902639638    0.02184748312247    1.73372542421395
O           0.23044235030707   -2.63473400209321    1.43002976269539
H           1.06208097988337   -3.11122081223354    1.45127770470691
H           0.31408766984859   -1.95890394371036    0.69986588413312
O          -2.18916200801033    0.03758984195625    0.12970703138271
H          -1.78313314599401   -0.77491711881918   -0.18714068785708
H          -1.55241106198588    0.73709966473151   -0.13059987672291
O          -0.08076129409608   -0.76195804852064    3.11301931362346
H          -1.07568367310809   -0.47356246989998    3.06702879268430
H          -0.00164744717883   -1.62805314547872    2.57115407025299
H           0.40669010884826   -0.04976380142913    2.47259148196807
N           1.77239160572156   -0.06691014839258   -2.81367868165634
H           1.11548428624347    0.59099820027395   -3.23479956684409
H           1.24596874881564   -0.87025024207924   -2.49296523898149
H           2.45070447289642   -0.35713370500462   -3.50489355382520
