    26
        -50.45399902  Gyration_radius:  2.57194989385 Dipole_moment: 2.552
 S          -0.32642278166699   -0.76120265184779   -0.61554885852569
O          -0.15681767929389    0.69585838215539   -0.59047592291783
O           0.84468986521613   -1.43506253369497   -0.07171756989303
O          -1.54275230191124   -1.15578999819537    0.10348620615515
O          -0.52701362981957   -1.18365671688270   -2.07783247343764
H           0.22546238938778   -0.66949181371353   -2.57892601389104
O           3.14870121322239   -1.31773841422364   -1.41503234808650
H           2.34635385803019   -1.36542893895530   -0.85455322792477
H           3.49986966617253   -2.20911782302354   -1.43967680226611
O          -0.96586804816398   -0.08081838709118    3.53250782884605
H          -0.14276600647537    0.10503170706283    3.00106562897881
H          -0.91160735153562   -1.00302011069464    3.79098692961832
O          -1.85249054822881    2.32537024678108    0.44919797559397
H          -1.15180760314999    1.76052921390378    0.01698934070475
H          -2.40476802450210    2.65772482407336   -0.26044282243908
O           1.04631824633480    0.28597654810770    1.90660729713541
H           1.07485472614238   -0.45793415928412    1.26771082987175
H           0.92532595419125    1.06292338228167    1.35240910873142
O          -2.68848873994969    0.29548701384745    1.72102608292328
H          -2.46338674342407    1.20922895831285    1.31567631629168
H          -2.26535368571951   -0.38126589368082    1.00130847612103
H          -2.06969050174547    0.17616379845851    2.54445457796439
N           1.38265808191291    0.20613133014760   -3.01742595430625
H           2.21214126622327   -0.27178694589030   -2.66344440652264
H           1.22555527891600    1.02454397148503   -2.44221367817898
H           1.53730305982575    0.48734499055573   -3.97613650054465
