    26
        -50.45650415  Gyration_radius:  2.4368700484 Dipole_moment: 2.852
 S           0.52649282025256   -0.63954226940203   -0.10371506540528
O           1.58110946252668    0.09749750609301    0.58737313528431
O          -0.78755979547376   -0.05201287629128    0.18086430441526
O           0.76517087571693   -0.67191244143634   -1.55361175128660
O           0.52095283422515   -2.09318273387223    0.35318905654088
H           0.33800649380928   -2.14877138971326    1.40507771874348
O           1.73917655729158    2.43484897462944   -0.52543085479666
H           2.66839821649759    2.65839297829296   -0.60665475558623
H           1.70359294463662    1.57458483610629   -0.02830689015768
O          -1.97023342931191   -1.22223175216904   -1.98431239348464
H          -1.65303848146680   -1.02498872905243   -1.08907588122742
H          -1.19865090960373   -1.56243510236044   -2.44480598431867
O          -1.92554137704605    1.49435462507616   -1.67284326271665
H          -1.63814996865331    1.13495009290593   -0.80697215010155
H          -2.30664885461443    0.71307263944939   -2.11288697752479
O          -0.00686955262802    0.61877616619520    2.69253009613898
H          -0.68328687007733    0.60673446066611    2.00109792206218
H           0.81753568521598    0.61293032530864    2.18028817996783
O           0.42774146871818    1.57048868321027   -2.52272712826873
H           0.61894446685566    0.56538083292294   -2.22787269396268
H          -0.59434619833411    1.67272686461146   -2.27048494599639
H           0.95516844525301    2.08978420951201   -1.81730194417604
N           0.07196947700900   -2.14242990364862    2.84314126894786
H          -0.79340328390855   -2.60451911834065    3.08688698386277
H          -0.00324830843840   -1.13824947411719    3.05437302513779
H           0.82671728156629   -2.54424740462753    3.38218097779485
