    26
        -50.45399894  Gyration_radius:  2.5720226645 Dipole_moment: 2.554
 S           0.03226133538637    0.44766697342274    0.92855143653540
O          -0.68536707665067   -0.75871754138823    1.31705419626221
O           0.86404312140144    0.20935028734509   -0.25628746972821
O          -0.89476508133272    1.56103230789967    0.69783690346787
O           0.96031540473230    0.88184636956763    2.07184702742097
H           1.73455382138056    0.18898837127293    2.02549168437253
O           0.69356507530736   -2.84089182928218    2.26030548611092
H           0.13400861542369   -2.12930793934437    1.88517472506677
H           0.23580277262727   -3.14191237450176    3.04663736323012
O           0.79450754591184    1.65771057015855   -2.37971288076079
H           0.88777919383286    1.05466192423506   -1.58947763786566
H           1.51007940443934    2.29277793145584   -2.31874345747338
O          -3.01061993083941    0.43641857509031   -2.04103212096647
H          -2.39400458609648   -0.30693150231893   -1.79271341605925
H          -3.74555451674523    0.38724135099167   -1.42648473182424
O          -1.28803560758239   -1.32883098741200   -1.17854356704253
H          -1.19318873431663   -1.22888491333611   -0.20724703640341
H          -0.40264985217127   -1.16266159579779   -1.51603052722265
O          -1.48486424686116    2.38843775849183   -1.53877967418132
H          -1.24827999749015    2.10740352346988   -0.52884320942190
H          -0.60904278864483    2.18420292504283   -2.02987604474604
H          -2.16418727522388    1.66102579010084   -1.82955743097009
N           2.70362786487328   -0.92979556624436    1.69773315311537
H           2.22033910252033   -1.77946208297952    1.99138939078365
H           3.65969333420234   -0.95369442568581    2.02557269477814
H           2.68998310193971   -0.89767389026177    0.68573514352111
