    26
        -50.46256840  Gyration_radius:  2.41338337353 Dipole_moment: 3.846
 S           0.29137728140422    1.20750390165615    0.28963235839136
O           1.54699794255808    0.48121618676591    0.41553849832996
O          -0.35540849939012    0.87109362502974   -0.98502202610585
O          -0.60138032038348    0.94938858363360    1.41158040341827
O           0.58142410013629    2.72755981342682    0.28604008499564
H           1.22366109683806    2.82109471580367   -0.47025291896533
O           0.41473799957727   -1.64993891363347   -1.13172079720686
H           1.33519629013384   -1.62247300053400   -0.85723951526870
H           0.14143851256030   -0.70732675362993   -1.16294409412967
O           1.00786617107905   -1.15014236092538    2.44312108314563
H           1.33751300267443   -0.57465743011212    1.72043581755509
H           0.51568006954493   -0.55677394080441    3.01627993581168
O          -2.67593306674355   -0.30643401738118   -1.33261605433659
H          -2.43333205463663   -1.05627318395189   -1.88179879097141
H          -1.88219020625326    0.27692212122164   -1.30721670938555
O          -0.74542076099681   -2.54664877292627    1.07645207162024
H          -0.06133904322860   -2.18640120760534    1.70324690896020
H          -0.35785188967173   -2.38989207586876    0.17984603002594
O          -2.43840955658666   -0.75532110771808    1.17371806478457
H          -1.78459859500224    0.01308257972119    1.35665123057977
H          -2.71400873561186   -0.61690295898127    0.20254152170296
H          -1.75965111844171   -1.63967621734415    1.17287536004186
N           2.22974943664385    2.28040781936678   -1.68086752116492
H           2.45525094208506    1.45301124815687   -1.13655758609449
H           3.08307584073631    2.68335027689070   -2.04592114097455
H           1.64555517095949    1.99423104977255   -2.45580220472500
