    26
        -50.45726678  Gyration_radius:  2.49144853436 Dipole_moment: 1.647
 S          -0.12470584765209   -0.10505843697408    1.29802241318707
O          -1.31708892527038   -0.08666287194033    0.45953545877724
O           0.53432066575997   -1.39820632036746    1.28069918071609
O           0.78973295944000    0.97298812697376    0.91158835251270
O          -0.55780686888861    0.21887780004667    2.75789361216767
H          -1.16448505051030   -0.53622527571538    2.95181527891066
O           1.72124722016562   -2.03499110830747   -0.96867674893267
H           2.39761192547908   -2.67168769541367   -0.73093899278863
H           1.21593705401086   -1.85753098602327   -0.13900405279401
O           2.35243503671739    0.50396227714858   -1.14255339829381
H           1.94060473976984    0.70157840448002   -0.26745728099487
H           2.22355890808673   -0.47398293699046   -1.24442527065530
O          -0.06312693054571    3.03760809871733   -0.39946824541304
H           0.49222625766558    3.76162654326451   -0.10413455618208
H           0.14237804748376    2.27443983946595    0.20223091164543
O          -1.29775362683773    0.00356368107178   -2.11231727954867
H          -2.16975747706193    0.34284954378614   -2.32326771787155
H          -1.28251672100117   -0.09789438442965   -1.11966401575337
O           0.59352481001302    1.65196695631246   -2.44321263157099
H          -0.16938776576311    0.95638029520962   -2.42567523111005
H           0.31840119261874    2.33152971338061   -1.73390711899737
H           1.44334272198109    1.13419908767409   -1.97211216641109
N          -1.95845581308692   -1.96876126228004    2.50369629085569
H          -2.37168499574285   -1.57310421510312    1.66614368153033
H          -2.58752397857257   -2.66356235012865    2.88698777948560
H          -1.10102755825672   -2.42390252389226    2.20820174752641
