    26
        -50.45201935  Gyration_radius:  2.50138626903 Dipole_moment: 2.540
 S           0.34245185051479    1.34999965658127   -0.24783751323661
O           0.28118375381366    1.58060260936746    1.18649346580218
O           1.20621030969973    0.21562805219074   -0.56785187242090
O          -0.99448723932901    1.15638179996984   -0.82112474844814
O           0.91626154325412    2.61160777895716   -0.94705719881301
H           1.79714330143409    2.71660745319358   -0.50086687313000
O           0.97076266872964   -0.83376643298643    1.87341553259350
H           1.42285218342336   -0.83407407755500    1.01447559685948
H           0.65585885043458    0.09569327417166    1.92070951072095
O          -0.11977288805603   -1.91368417326861   -1.46700272517897
H           0.40953616096475   -1.11482381179293   -1.25316006887463
H          -0.29619198608121   -2.35011677694455   -0.62613928657597
O          -2.48414112681833   -1.18778871101259   -2.31609256385130
H          -2.34219978508101   -0.35313609604876   -2.77108156807907
H          -1.57230614233978   -1.55658968163771   -2.15177093581756
O          -1.16693771119632   -2.13862023136934    1.24942139327293
H          -0.33290164060513   -1.66254605447598    1.55513790127227
H          -1.51517237237404   -2.59500464897160    2.01690173588863
O          -2.66038434299952   -0.41125760195462    0.05934353800673
H          -1.96789835844061    0.36667118607419   -0.19026784355345
H          -2.77769095247419   -0.80919766390413   -0.90644281630773
H          -2.12430164425668   -1.10184504888157    0.57962731234590
N           2.98462017816199    2.32870145880428    0.62605723436174
H           3.74941655263451    2.85399239869572    1.03037882605564
H           3.33403297561838    1.43123198410807    0.31431918234295
H           2.28405585110008    2.15533336848682    1.34041479476470
