    26
        -50.45726675  Gyration_radius:  2.49139884198 Dipole_moment: 1.648
 S           0.84989149388948    0.99241367508741   -0.06754751346783
O          -0.09000660784484    0.92330031175411    1.04466837745168
O           1.96591738979155    0.08036718942231    0.10403639609900
O           0.15670723049341    0.76540908560001   -1.33865476098785
O           1.39723240872215    2.44776595166410   -0.14526521691871
H           1.84557966367169    2.53273610926653    0.73087470398962
O           1.39138583293782   -2.46744132388694   -0.12410672441350
H           1.62116596365298   -1.52233456026933    0.04652585716023
H           2.21364946384664   -2.89550025033565   -0.36904894522764
O          -2.40156500171651    1.11569079376373   -1.54228804768093
H          -2.53699134342451    1.41005905916407   -2.44500201869840
H          -1.41890084264542    1.12608120171404   -1.39773075537564
O          -0.28595223776541   -1.73388540786050   -2.00100075623949
H          -0.01102385500806   -0.78877323961341   -1.92533325818103
H           0.29210791450041   -2.19763058274434   -1.34211080059273
O          -1.76794880391605   -0.98982426594352    1.42922400277428
H          -1.06606002873641   -0.29260852856832    1.29877817666148
H          -2.43034440349069   -0.58603871689168    1.99334287057707
O          -2.49841268965749   -1.37096570120762   -0.96344566314341
H          -2.61986656768968   -0.39500549588532   -1.23447841353335
H          -1.55449364051501   -1.64851532079518   -1.45747026777158
H          -2.25524111115045   -1.31895080789906    0.03871290686284
N           2.30206703045566    1.90985234260783    2.24305411738808
H           1.35900491124594    1.64926136330110    2.51049356630094
H           2.81961140490624    2.17668181229415    3.07149381141985
H           2.72248641542233    1.07785531624157    1.84227835553813
