    26
        -50.46407701  Gyration_radius:  2.36410388799 Dipole_moment: 3.024
 S           0.39197751843547    0.21258855928972    1.32736991551493
O           1.29977626729388   -0.38728408428592    0.34770347966642
O          -0.63861267555191    1.00616436001947    0.63968344634786
O          -0.22185728497913   -0.79537308175667    2.16868907716162
O           1.20630564859322    1.18205906506262    2.21144079166735
H           1.62834222640476    1.77972015418708    1.52361316266210
O           0.22916914164002   -2.93998287190963    0.76358415374145
H           1.08910620721913   -2.69586156511234    0.40479298726737
H           0.05029670101029   -2.23890150654065    1.43944486564882
O           0.17694765616798   -0.62331921365013   -1.98697589003273
H          -0.11908411317805    0.29350813094752   -2.16098386629968
H           0.71971776855103   -0.54717547098745   -1.16212897802886
O          -0.50383623615039    1.98312414452198   -1.77489192518141
H          -1.36757743250659    2.33275670379716   -1.99948467272916
H          -0.55890561335661    1.70766799588979   -0.82949104562752
O          -2.62780121271958   -0.64849992015399    0.70094529837853
H          -1.97268059266914    0.09451440617391    0.68112328781800
H          -2.50004751337749   -1.04193684072166    1.57056833801921
O          -1.47032048175128   -2.17922228427950   -0.94915436171839
H          -0.84251512247206   -1.52164773995748   -1.50691504326112
H          -0.81066069658592   -2.63986845775894   -0.29075790151256
H          -2.05970303591524   -1.58163786936703   -0.33820940344548
N           2.15456605085690    2.31244502349546    0.06369965578572
H           3.01099816781347    2.83811543023882   -0.05642146354742
H           1.43703657186421    2.73265193252247   -0.51520366935421
H           2.29936207536239    1.36539499033109   -0.27204023893566
