    26
        -50.46407702  Gyration_radius:  2.36409388975 Dipole_moment: 3.024
 S           0.96153043225812    0.10574753749577    1.01213669944148
O           1.31317270483851    0.27634312203689   -0.39886385816138
O          -0.47119612653985    0.37552732688562    1.21064817162794
O           1.29770656682970   -1.22203297735072    1.48600565315823
O           1.74545126635865    1.15052000394353    1.83584972228025
H           1.48631330300266    2.00664775376180    1.37934972990043
O          -1.39764909947460   -2.03916079087883    1.30727366276956
H          -1.15898233644346   -1.07919206693951    1.36337246739444
H          -0.68668276908492   -2.47914079341006    1.78510115432942
O           1.58408045834149   -2.48431789269909   -0.77277622437778
H           1.95906617002911   -1.76401508789546   -1.29078400861939
H           1.58629050039563   -2.13256607312608    0.15271069800143
O          -0.75558741575242   -0.01856075047884   -1.94814773119798
H           0.08910994541141    0.15488067655439   -1.46114320804398
H          -1.38512365870338    0.62744271937083   -1.56754033419563
O          -2.03113454375621    1.75598514339626   -0.35874995902013
H          -1.45791354046141    1.30336338276604    0.30407156086141
H          -2.93134674322589    1.64799040436743   -0.04772226729900
O          -0.91457478538766   -2.37566362616118   -1.15423823636066
H          -0.96546410122908   -1.39023251631593   -1.55915496689638
H           0.10723969002649   -2.55406600581341   -1.08445078012366
H          -1.22646705139782   -2.30833553641835   -0.16634764563719
N           0.90180326248227    3.02118554742200    0.23012570979049
H           1.14477567415027    2.37701922822439   -0.51592998298157
H           1.31212407253472    3.92458439345035    0.03073674226313
H          -0.10654187519303    3.12004688780715    0.22846726109489
