    26
        -50.46256838  Gyration_radius:  2.41374781793 Dipole_moment: 3.848
 S           0.63750228556457    0.64766520349372    0.89380767914582
O           1.61816630376435   -0.26626201852603    0.32534890067310
O          -0.07636208723996    1.34751479366412   -0.18172315072784
O          -0.29505123775306   -0.03685894631646    1.77949747235565
O           1.36861981817187    1.71208715608830    1.74638972438149
H           2.01347383806223    2.10266989925009    1.09455159288581
O           0.60785372631099   -2.62197055851789    1.02818588143509
H           1.09723187049672   -1.81924178422767    0.74859399754252
H           0.31369971558992   -2.42423074319390    1.92103864382578
O          -0.09404163255354   -0.61496546410435   -1.94757900765728
H           0.79138475282673   -0.98311397479782   -1.88612135493120
H          -0.07354090341842    0.16957427737312   -1.35749232814405
O          -2.64244040776841    1.23893860216849   -0.72393601197371
H          -2.63613384904440    0.97057130207840   -1.64628080329023
H          -1.70980926735857    1.46852163457590   -0.50351411373135
O          -1.47864420431807   -2.39088636943247   -0.54894394718840
H          -0.72029335587364   -2.67727613225410    0.02838730211394
H          -1.05865989969874   -1.80414314689470   -1.22562765854263
O          -2.55693458275661   -0.72259153838722    0.91401844175814
H          -1.70313149630529   -0.42021700911652    1.39521119702388
H          -2.77568403897186    0.05430962654716    0.29176909016361
H          -2.17513569011068   -1.53792045111326    0.25818866876349
N           2.82042603500046    2.22022117417301   -0.35602183368033
H           2.78246866041365    1.21139197925427   -0.46840622830120
H           3.75907995566065    2.54329377823790   -0.55189352922036
H           2.18595569131228    2.63291874995781   -1.02744863467652
