    26
        -50.45364997  Gyration_radius:  2.43639710971 Dipole_moment: 4.232
 S           0.27240626367668    0.08933508010150    1.10804843652231
O          -0.97135023008292    0.62215569960858    0.50798679992899
O           0.89677446595325   -0.84475175324320    0.16328197951025
O           1.16110762881453    1.17256552524365    1.46744921059296
O          -0.10148278964467   -0.68258251935663    2.38068829991033
H          -0.44399964635037   -1.59998194456165    2.05050966154498
O          -3.00388600620143   -1.11780386100457    0.43853612981433
H          -3.72420558814593   -0.75689880762061    0.95729792154252
H          -2.29451141455541   -0.44270191105937    0.46025876243054
O          -0.48589753629471    0.16053654982664   -1.98407005363655
H           0.01314159679881   -0.64930975814361   -1.82494864630733
H          -0.83966718501369    0.37268634469537   -1.07958828521987
O           0.30977610895116    3.08093305478645   -0.00253637301926
H           0.74133872820007    2.47860255965509    0.66870203833072
H          -0.61784413475090    2.82006213042868    0.03250016325094
O           2.88239936850182    0.39747103924873   -0.94320051665093
H           2.20044670602772   -0.08059744158117   -0.39998969893187
H           3.40020515574517   -0.27142941292339   -1.39435550666884
O           1.24292831744283    1.98719816735044   -2.04511972148214
H           0.88625748408925    2.57281700141563   -1.22847826255717
H           2.02830379727202    1.45022409402443   -1.66364020240614
H           0.49449984132572    1.26580162603749   -2.17020456111846
N          -0.92985353295508   -2.84226685123635    1.29953906382269
H          -1.81949707000008   -2.52871502971921    0.91239718910061
H          -1.04522541547511   -3.74551307330125    1.73750870486902
H          -0.25216493334418   -2.90783650863997    0.55142745683263
