    26
        -50.46220851  Gyration_radius:  2.42278299318 Dipole_moment: 2.973
 S           1.11624699172906    0.56708839641010   -0.08298557985984
O          -0.09235115680769    1.14383683961645   -0.68966499336729
O           0.88671361036239    0.28831602000633    1.32796666567948
O           1.53689226364726   -0.62357645798643   -0.80929170487643
O           2.25056697029391    1.60774389941097   -0.21358251133497
H           1.96000737532430    2.33397228795966    0.41036781799115
O           0.34395332221486   -2.47662153882733    0.65751403479706
H           0.88072430054019   -1.85718707980132    0.12036825170137
H           0.51176057416541   -2.21095449104692    1.56511633552702
O           0.42412449231414   -1.93606712118933   -2.79370981854611
H           1.02541766113249   -1.44202955840758   -2.19335914329029
H           0.40542313539009   -2.83799617599075   -2.46363190891993
O          -2.12568726911895   -1.70770750901804    0.09858403897083
H          -2.17605059487173   -0.94861666701303    0.73394430461340
H          -1.27434505730497   -2.16264874282423    0.31950110725705
O          -1.74347173243033    0.50814105484402    1.47773762011948
H          -0.77219143696360    0.39088057854967    1.56167535019438
H          -1.84071433353786    1.16841916643213    0.78473206054535
O          -1.51395456102964   -0.48485360622468   -1.96310656435810
H          -0.94808785051920    0.26131836203368   -1.52079293355574
H          -0.83612290698425   -1.08017099383274   -2.43720117031344
H          -1.87956722446138   -1.06683910448411   -1.10050722225422
N           1.12883889390098    3.10278373459326    1.60179536104479
H           0.87453000259311    2.21444208624209    2.02406933175709
H           0.28534708339577    3.56221198348767    1.28505124351402
H           1.57199745702992    3.68611464704962    2.29941003694839
