    26
        -50.46273309  Gyration_radius:  2.44592501653 Dipole_moment: 1.685
 S           0.74268801814065    0.63346077562658    0.87926179838533
O           0.65931074544068    1.14668390676347   -0.49235009839937
O          -0.46736364299574    0.94504794358556    1.62162912048269
O           1.02053597895748   -0.80079214606881    0.87446771371445
O           1.95268510504843    1.31492591102436    1.56322079055825
H           1.68435731653460    2.27530505466023    1.52961341623219
O          -0.98718263302441   -2.45222163764440    0.59236909166903
H          -0.93139488193195   -3.15318545975518    1.24308939273322
H          -0.22043795362105   -1.85126202279361    0.76766870059176
O          -0.47946802464009   -2.16128134536018   -2.09024836231742
H          -0.75430238208620   -2.49736157178483   -1.21822802388172
H           0.49656510892657   -2.06877237653195   -2.03516361252522
O           2.05071257391347   -1.68428436595376   -1.41005560029215
H           1.76624695071643   -1.26989974234890   -0.56876567602864
H           2.82266963107408   -2.21330864152674   -1.20538864673372
O          -2.47838624653434   -0.16234574565627    0.35745514004786
H          -1.84856319968367    0.33500287527446    0.93307170236279
H          -2.26642454790589   -1.09765263206444    0.51730739311174
O          -1.24678282894820    0.21499961277496   -1.80431612438029
H          -0.94646312121377   -0.76613571639419   -2.05076434823122
H          -1.90098639930171    0.10238397623032   -0.99586918637338
H          -0.41473185739380    0.65854160899147   -1.35934096773191
N           0.66019830851879    3.53135112558598    1.18190660331476
H           0.63830816828211    3.49946863085672    0.16990426581698
H           0.60223163316000    4.49587427898046    1.48339755529848
H          -0.15402183942918    3.02545771353332    1.51612795257576
