    26
        -50.46273311  Gyration_radius:  2.44593552372 Dipole_moment: 1.685
 S           1.07675241061547    0.75003396054718    0.06300551864730
O           0.02800354053411    1.08037176523897   -0.90789802768668
O           0.68002896998658    1.14221154256924    1.40510442551534
O           1.41364414059592   -0.66972105380077   -0.00869335843866
O           2.35303166336257    1.52718288178721   -0.34124287325706
H           2.04283420515547    2.47222198732368   -0.26281479300425
O          -0.06974049985759   -2.36534254515302    1.31888368128621
H           0.48396208909300   -2.97546733313433    1.80781041143144
H           0.54588233851016   -1.73846489506080    0.86304291787296
O          -1.56673552572278   -2.41877637752332   -0.98220207699844
H          -1.13602519826374   -2.64204333255788   -0.13748804789827
H          -0.83264243067863   -2.30942342629714   -1.62515624511947
O           0.68096452126385   -1.83075476012888   -2.28377057828126
H           1.01065293775160   -1.31381772521057   -1.51924875268282
H           1.43020428810503   -2.32127003797256   -2.62398322098877
O          -1.53057696774408   -0.14127530908387    1.98330433904785
H          -0.72989447762933    0.43322282133568    1.91819665476440
H          -1.17707741020156   -1.04568015457671    2.03223311809924
O          -2.15667948504885   -0.03387649882887   -0.45161881650845
H          -1.29404289014414    0.47252548498397   -0.74560814362276
H          -2.01286615745730   -1.03534410584601   -0.75145885807634
H          -2.06523560735780   -0.04791576914000    0.59035514836058
N           0.94266840186323    3.66164007053740    0.08705782897050
H           0.63212450935877    3.19468604519982    0.93328848054775
H           0.23745901653838    3.49865042381560   -0.62128649996065
H           1.01330362737706    4.65642634097126    0.26018776797739
