    26
        -50.45364972  Gyration_radius:  2.4362739763 Dipole_moment: 4.217
 S           0.52259114892131    0.73005118603550    0.70905144960078
O           1.09573712188203   -0.56188807589028    0.26961407749640
O          -0.61196079846508    1.06985060905766   -0.15844621967868
O           0.13870725164908    0.66171394038717    2.10199834037054
O           1.59909595054711    1.81199108886868    0.54832389776879
H           1.59773795271617    2.04871991673599   -0.45750082792185
O          -0.08672727741307   -1.85528242310690    2.47720544896024
H          -0.00337501284881   -0.86030014666391    2.52967319020535
H           0.62452745224532   -2.10381347143035    1.87545029319999
O          -0.92362163794647   -1.51126205911339   -1.02688289271587
H          -1.23353181098447   -0.65050664045081   -1.33259122126310
H          -0.05332667534148   -1.28356275020683   -0.60434789683887
O           2.50269532979849   -0.43597114598362   -2.00368420530510
H           3.40257518399891   -0.70521604415174   -1.81422109233887
H           2.01363781126287   -0.52492052017324   -1.15976451858953
O          -2.77472544085475    0.54481642970938    1.16760610683166
H          -1.92771514033697    0.85591458574159    0.74996465197618
H          -3.49282174166970    0.95550305932279    0.68306433159644
O          -2.17915133843111   -1.91943076888449    1.11476592792215
H          -1.73108517673102   -1.87864208901909    0.16939977831702
H          -1.34735715598760   -1.98237638071363    1.77936060431580
H          -2.54950307036898   -0.97223083443442    1.24226983355026
N           1.41427482066707    2.17792941044628   -1.97201980059767
H           0.41038253490799    2.09580184865230   -2.06535877468271
H           1.84887543026720    1.32279238362749   -2.31769108839400
H           1.74406428833372    2.97031889166662   -2.50523940387457
