    26
        -50.46318599  Gyration_radius:  2.50865636044 Dipole_moment: 7.449
 S          -0.68046232377722    0.73738476097895   -1.82849601855148
O          -0.21890308505022    1.92990325073539   -1.09944111041002
O           0.45926037968863    0.00085751107349   -2.35176166177796
O          -1.59969307279770   -0.05111168576784   -1.05736354209794
O          -1.46918391947417    1.28376249470429   -3.08472765789482
H          -0.77130576181056    1.65722489653362   -3.61247280356946
O          -0.51012273864949    0.45218085398429    2.43324484182743
H          -1.17111337378125    1.09609570307482    2.09075868649836
H           0.61632333025852    0.76515197465492    1.58074368557740
O           2.13626796406045   -1.07724419469877   -0.73874352976232
H           1.45485756264584   -0.72545282913612   -1.38125176837191
H           2.88600677560560   -1.33175074424803   -1.27975846826952
O          -2.09546162920352    1.92528906993112    0.85446511832245
H          -2.63884806841693    1.21240250482416    0.50331294618749
H          -1.46044284714041    2.11031443669139    0.14060424785324
O           0.84980398505917   -3.14438609572381    0.55312958534511
H           1.31835757943073   -2.45655945765625    0.04741733838887
H           1.37093732637105   -3.32259724421788    1.33748795701254
O          -1.37832920726521   -1.64637039536367    1.14334999212639
H          -1.57542537419417   -1.18949223279088    0.30846051956032
H          -0.70277857406900   -2.31270601940059    0.92552473710886
H          -0.84627294895656   -0.42309243004753    2.09531496060263
N           1.36238084388412    1.05946081115807    0.80539839323633
H           0.79724690086014    1.50119886792749    0.02889120952171
H           1.83061148260564    0.23038234621787    0.40785587610463
H           2.03628877410693    1.71915386655484    1.17805646535342
