    26
        -50.45780426  Gyration_radius:  2.43636270287 Dipole_moment: 5.295
 S           0.22869627110664    1.22801902277680    1.09678825333336
O           1.12439248420101    0.07052056714687    0.96971678585490
O          -0.43214560332689    1.46036416546945   -0.20175873529884
O          -0.72244861095555    1.05506660282588    2.16499431220862
O           1.10809780534793    2.46273905463653    1.39690951878105
H           1.68115141696286    2.50800236514296    0.57789794186081
O          -0.02107665904325   -2.21118369244622    1.64811347581433
H           0.45064811540652   -1.37549454893314    1.42953202073962
H           0.24192020200541   -2.43269231122448    2.54295492057081
O           1.36172485861921   -1.12391459147913   -1.33521363402473
H           1.69545634725605   -1.97857714085705   -1.05241634821234
H           1.27537261725350   -0.59693082580756   -0.50288489355985
O          -1.09580406161880   -1.55927205149900   -2.19338051798743
H          -1.11952227369240   -1.29226670396689   -3.11373902492819
H          -0.16422143799071   -1.41141354428016   -1.88116008861821
O          -2.35717966016863   -0.93081079656162    1.65058580509053
H          -1.91004199705166   -0.14213907945147    2.03770154476017
H          -1.64452769989734   -1.61074915595704    1.62911890640767
O          -2.39970874463787    0.00497131148190   -0.64750174534324
H          -1.63959820587550    0.70443323924818   -0.48380152996186
H          -1.97516449583076   -0.68017403807659   -1.27512228528150
H          -2.50558340450171   -0.45999697506820    0.32000883197535
N           2.20555435686606    2.17942662223825   -0.94948965700991
H           1.26271969251178    1.92819551755710   -1.23193771120732
H           2.77507709062082    1.34443363020351   -0.99538183155439
H           2.57621160641154    2.85944335687670   -1.60053431439195
