    26
        -50.45780494  Gyration_radius:  2.43648652693 Dipole_moment: 5.312
 S           0.54831836725936    0.72372522563175   -1.39067533423361
O          -0.20705893045073    1.47705458124062   -0.37156061479205
O           1.21754999944556   -0.41049416088143   -0.73936382651830
O          -0.29110816306787    0.29651817465645   -2.48092775849786
O           1.65028289758358    1.65929841499062   -1.93687855661211
H           2.12502786405767    1.92636269538414   -1.09748298623809
O           1.01072400339997   -0.71669484197104    1.83994022682712
H           1.24210278480753   -1.64451111642187    1.92448166859804
H           1.09998407505192   -0.51911487012471    0.87487998703239
O          -0.20708403523541   -2.63436668473144   -0.80544222969167
H           0.11532710552937   -3.18248694498869   -1.52283589088066
H           0.36925852863818   -1.83660942217221   -0.79833542418283
O          -2.28206396207191   -1.17185842370185   -1.60877236585881
H          -1.69907154326033   -1.88013576358661   -1.24889393955055
H          -1.66968029327128   -0.62822254589765   -2.15766388392814
O          -1.56901774217796   -0.55818131073377    2.37627985097929
H          -1.65804809456035    0.01053473649989    3.14272709549407
H          -0.59573912858742   -0.63007973969560    2.19044452354681
O          -2.42185811003278    0.50637963626289    0.21336533994905
H          -1.54506646679574    1.01174092234121   -0.04947064211155
H          -2.49576456700862   -0.25213897186530   -0.55103574396966
H          -2.18576357062472    0.03937168477042    1.09054821375341
N           2.40822799276469    2.10887603422927    0.51554975548424
H           1.41040325582739    2.08434774710197    0.70445497634332
H           2.80690000194137    2.93198233466859    0.94826328014622
H           2.82321772083715    1.28870261896833    0.93840427890646
