    26
        -50.46564192  Gyration_radius:  2.420244789 Dipole_moment: 2.438
 S           1.07912051507346    0.45377369631112    0.55785354090587
O           0.70497215968015    0.73744064923314   -0.83790303827586
O           0.18467047414480    1.14050626399834    1.47419118375648
O           1.10804833232970   -0.98523812878843    0.79159482162742
O           2.52037281244152    0.97523441076547    0.75689773557311
H           2.40207571297432    1.96009956066775    0.62567554167797
O          -1.13021996521667   -2.26827697293478    1.20954939710726
H          -0.25777661876118   -1.81051131926481    1.12055954157575
H          -0.99695930398129   -2.97328352667707    1.84465201878071
O           1.25590240342968   -1.89365528582503   -1.71544602416131
H           1.37846581946353   -1.04609314909867   -2.15297567719298
H           1.35969841165222   -1.69119535100916   -0.76508718493400
O          -1.35421256681997   -2.25821582302157   -1.51817941923231
H          -1.41419628862191   -2.49523148740977   -0.57432658055313
H          -0.38630103093043   -2.28054639508191   -1.73062203212342
O          -2.25246438056329    0.23675500241400    1.13107675364944
H          -1.41224275104545    0.67521332977380    1.40552278645113
H          -2.12854718577158   -0.70207135821613    1.35154891118010
O          -1.69589820964309    0.20787853938291   -1.31986394941235
H          -2.08124242815759    0.28262758317171   -0.34848889910750
H          -0.70742602855177    0.50179801328928   -1.20596619281153
H          -1.63644245233268   -0.84319100824559   -1.50829718715904
N           1.57508392865244    3.36297759293286    0.38342450773244
H           1.80364538318034    4.29935353596150    0.69179505456983
H           0.78619603383943    3.01578030055103    0.92129832742693
H           1.29567725353782    3.39807131715762   -0.58848390705263
