    26
        -50.45568721  Gyration_radius:  2.56755946517 Dipole_moment: 1.948
 S          -0.77263657807105    0.55849338053684    0.33571127886859
O           0.37805387155090   -0.10555761746963    0.99904586562884
O          -0.32049794105191    1.27555248087181   -0.84198416416200
O          -1.81238614512345   -0.40770719209177    0.03405160340155
O          -1.35093173174839    1.55715098946410    1.35799043424791
H          -0.53117924300441    1.98776851558379    1.75629896976723
O          -0.71681119765274   -0.73793372032622   -2.49562688137829
H          -1.58585524462509   -0.98281868913802   -2.16324490050798
H          -0.50441056355222    0.08685063656143   -2.00863417139045
O           0.95702532174239    2.32191310815146    2.12065625562359
H           1.24756476905781    2.85755835439550    1.33720825310917
H           1.22457172243972    1.41276030821621    1.93147831572667
O           0.98324390654699   -2.57033558134704   -1.74779548556217
H           0.31833095700380   -1.91447300760939   -2.10355984353513
H           1.84635906411662   -2.24807778410353   -2.01309558397763
O          -1.96073882524829   -2.81406101988872    0.96725501024226
H          -2.35775338335334   -2.77706315690915    1.83936189597534
H          -2.04964275934505   -1.90415780135451    0.58083253595114
O           0.55391204216045   -2.54632988279838    0.74752138852125
H          -0.42528533793550   -2.82529662055576    0.86977492451190
H           0.76437267900288   -2.64703305133452   -0.26041388586170
H           0.52481147762962   -1.48300750329602    0.90285835248471
N           1.43702933114013    3.44066260628111   -0.26577526423309
H           0.82006701967065    2.72562163487160   -0.65525826964881
H           2.31525510505760    3.39786557442156   -0.76713896554694
H           1.01753171358894    4.34165507887498   -0.45751767826642
