    26
        -50.45568737  Gyration_radius:  2.56742143161 Dipole_moment: 1.953
 S           0.97514257181503   -0.16203673978050    0.21031303685331
O           0.97167453545839    0.07326010187778   -1.22160935349887
O          -0.09697299568230    0.63492721656773    0.85869513849695
O           0.83613471515896   -1.56751871280933    0.54355130119523
O           2.30840493886213    0.32645225959912    0.81077977184195
H           2.20464048946762    1.32898945546342    0.83106797040708
O          -2.92220725458976   -1.28578045488725   -0.66676669955334
H          -2.09243218595595   -1.59433136853697   -1.13052064816799
H          -3.28059903813165   -0.57563497089717   -1.20198217051690
O          -0.64923244129267   -1.92977016621333   -1.77397099001143
H          -0.05818738710095   -1.14810360719047   -1.72617751613130
H          -0.21611739198094   -2.57909331259669   -1.21143584277724
O          -0.66982859855589   -2.53846454340860    2.40674197601709
H          -0.20330642960206   -2.46608283809261    3.24143837970792
H          -0.01718569616501   -2.29450857974355    1.69976054273026
O           1.60375453341040    2.77397086207794    0.73555144117185
H           0.71428125723876    2.43207037673484    0.89642901708670
H           1.65171231166490    2.95411586882141   -0.23931762388446
O          -2.09102404049433   -0.58805506214782    1.62098645551724
H          -1.24277939028679   -0.00082592468029    1.32039625356574
H          -2.51798947252985   -0.88836947890121    0.72779430203766
H          -1.66014458663930   -1.42281958225370    2.03274257073866
N           1.62033598531498    2.75015061814633   -1.94310103493751
H           1.38501410699189    1.75843763349348   -1.87390700458320
H           2.51638789734934    2.81827486725696   -2.40887005578746
H           0.93052357628275    3.19074608209397   -2.53858921752792
