    26
        -50.45568743  Gyration_radius:  2.56744816438 Dipole_moment: 1.952
 S          -0.75806771559069    0.65182905130951    0.13975017018726
O          -0.65363470387191   -0.82849514176082    0.19088348937180
O           0.34380733774379    1.25282353766989    0.86799906963462
O          -0.83141868101111    1.10924473692057   -1.23543339620902
O          -2.09036896143428    1.02091819202476    0.82207496617149
H          -2.11251787975898    0.42397888640676    1.63414011883299
O          -1.28440319849038   -0.37776392466544   -3.30077570582095
H          -2.23083919100130   -0.51379590915860   -3.37387444149954
H          -1.15426029060798    0.30690773956905   -2.59395771821114
O           1.92526747888902    1.43946158366229   -1.23183942395453
H           1.26349159461894    1.78964246913988   -1.83604230954751
H           1.46492452663019    1.42248168674348   -0.36564622159183
O           2.42699255300454   -1.02592958994623   -1.92249853565773
H           3.01799823308093   -1.36960916648220   -1.25034385195166
H           2.29522198386811   -0.05808336189320   -1.71094089649361
O          -1.76619127830529   -0.68603188762738    2.68585571142585
H          -1.31401311865311   -1.20802936929368    2.00986042165250
H          -1.04869912767568   -0.25197052304706    3.21681477484344
O           0.07685715293462   -1.96664059699746   -1.86424793183913
H          -0.25703927428329   -1.52892932487110   -0.94138133735476
H          -0.45420907605541   -1.44764501765885   -2.57183435376505
H           1.05995898563970   -1.65578425862730   -1.94839268567697
N           0.31381183043917    0.69292878902963    3.65944509493290
H           0.11495481899522    1.51456244951689    4.21608448407632
H           0.47651281954912    1.00417136676206    2.70012216425927
H           1.17586318133940    0.28975759326479    4.00417833419142
