    26
        -50.46460250  Gyration_radius:  2.41100708268 Dipole_moment: 2.672
 S           0.82925509896446    1.11973753319695    0.09583045494576
O           0.44806517911562    0.37380173653439   -1.11042898558472
O          -0.34062012227489    1.83343449614674    0.62438511957990
O           1.42532115245314    0.24835227659934    1.08877549879038
O           1.88807087816147    2.16922429177327   -0.31255756991206
H           1.38893401747594    2.71936906753236   -0.98118493221803
O           1.90435000133235   -1.79675122228298   -0.63211535211574
H           1.42726127294340   -1.06124350791684   -1.06464413056743
H           2.28565325757697   -1.37062000612302    0.14628674814988
O          -1.73812044374861   -1.05947576623530   -0.73011843551644
H          -0.97576703854224   -0.51216641155513   -1.03091180543097
H          -1.34279919319814   -1.90493773370505   -0.44431077577974
O          -2.01104904713191    0.17244248024368    1.43821818261187
H          -2.08740006113291   -0.35230430362307    0.53140756853369
H          -1.39240678833370    0.97078278875880    1.17470665396994
O          -0.18528585149499   -3.02121925691429    0.36375415396219
H           0.64693189566625   -2.64198219837283   -0.03771723463923
H          -0.12916233856063   -3.97191583082296    0.26196353691956
O          -0.24047651018540   -1.26842784447735    2.46623845706759
H           0.49544347037593   -0.70585101435962    2.13372442786589
H          -1.37519952754495   -0.43933532759141    2.01853482512757
H          -0.24366986866812   -2.05203414248903    1.88451962930932
N           0.08005037812708    3.15534524954306   -1.88665273034564
H          -0.56742513363249    3.14129942894059   -1.10606117821523
H          -0.06643679021101    2.30308738304464   -2.41408175637692
H          -0.12351789753656    3.95138782415718   -2.47756037016284
