    26
        -50.46220840  Gyration_radius:  2.42224506386 Dipole_moment: 2.964
 S           0.96948627264383    0.76467892516875    0.23327806055741
O          -0.19518738225272    1.20429867774246   -0.54891831730877
O           0.53930145732774    0.22488623413529    1.51565946254279
O           1.76108114404647   -0.19727572757330   -0.52170894996042
O           1.86360627487026    2.00006857944455    0.48016915576792
H           1.31196253054093    2.55294211375481    1.10532745405489
O          -2.05801679493973   -0.05821893016070    1.11350438623802
H          -1.11779874836739   -0.01158732722503    1.39286200911144
H          -2.15670685423469    0.67609058186501    0.49979770092797
O           0.72568619690331   -2.44751192281683    0.41268753428277
H           0.65984967610614   -2.30824516200975    1.36071282596010
H           1.21264479518623   -1.66249922535076    0.08559961052870
O           1.34496952661546   -1.35458944349249   -2.84246777426637
H           1.70468517603390   -0.86269097004173   -2.07133724560183
H           1.45134259520603   -2.28609761186997   -2.63342994877459
O          -1.69912116339624   -2.05504471905447   -0.57252585418393
H          -2.02681710742015   -1.42998138869159    0.12338451597686
H          -0.82921635429814   -2.37909507412182   -0.22800729266016
O          -0.97517232798334   -0.42669067203659   -2.28863373999926
H          -0.11003354024748   -0.80678743335069   -2.67067640938076
H          -1.36877706007743   -1.19559105681188   -1.60330115863058
H          -0.67274138474335    0.32789709959044   -1.64691078675214
N           0.12055357473257    2.95714027473398    2.16420005168229
H          -0.72273549826348    3.29672875776937    1.72100249356965
H           0.28265065148002    3.49518258036817    3.00535380715973
H          -0.01549567550547    1.98199286008554    2.41437841922688
