    26
        -50.45749013  Gyration_radius:  2.50658342833 Dipole_moment: 2.805
 S           0.11070965200589   -0.06345982261629   -1.20899622801249
O          -0.00250015809127    1.08503363491063   -2.08327619324176
O           0.73621543405330    0.30365503464716    0.07109520144406
O          -1.16821375515175   -0.72710639087787   -0.97324823347238
O           1.03545636019429   -1.12156506036797   -1.86958094836448
H           1.85475644045936   -0.59170724267816   -2.07798116249799
O          -1.98713415158387    2.29223171597902   -0.79918658379504
H          -1.24334338621940    1.96303495666402   -1.34583123168985
H          -2.76309973190487    1.82398310049261   -1.11347557647555
O          -1.04352864234292    1.53402206524071    1.56388902649204
H          -0.23251155390794    1.18574767036425    1.12575310926795
H          -1.47314024004256    2.06002019343475    0.85212697203701
O          -0.94346340634916   -2.45001415168671    2.42176358340662
H          -0.01119770577025   -2.16849185001589    2.22280442640119
H          -1.06845722656598   -3.28906548186535    1.97433017845067
O           1.43335211568576   -1.58873324411371    1.72472973323653
H           1.21430443125511   -0.91483295280643    1.03664757212582
H           1.93675321798797   -1.12551603712874    2.39683665922440
O          -2.26483929897595   -0.60746804339911    1.26154339049965
H          -1.89389514639650   -0.71512078289563    0.29497454739753
H          -1.80386688610368   -1.34758201767088    1.80547757267886
H          -1.82257258970519    0.33003024790742    1.54277102829472
N           2.79590901566440    0.77280033995360   -2.20935115025334
H           3.43968529725031    0.99847787312493   -2.95679219051025
H           3.21767776748791    1.04066281490634   -1.32972090510170
H           1.94694416705961    1.32096345050423   -2.32730259753755
