    26
        -50.46009918  Gyration_radius:  2.46658691533 Dipole_moment: 0.825
 S           1.19375145626566   -0.13925164566015    0.56742252026660
O           0.74733959191642    1.17854978439672    0.12811138725877
O           0.47918240162664   -0.57414114280017    1.75706077908007
O           1.06766007303335   -1.11286795753391   -0.51773110665758
O           2.70984050706007   -0.05531978490109    0.89603740404765
H           2.70365364329199    0.62007807072310    1.62156257453478
O          -1.09381046535991   -2.36004925776134   -1.29462214340500
H          -0.26342493470715   -2.03074569573535   -0.87360616854107
H          -0.89375749511578   -2.40419941111734   -2.23434290075372
O          -1.00287280979680    1.30168320618392   -1.76802202611615
H          -0.51333907237730    0.76899400921204   -2.43449979439778
H          -0.35326866829525    1.39662545808754   -1.01951504656104
O           0.60921949166343   -0.42524472269507   -3.01446845139407
H           0.88857587231334   -0.69381828834467   -2.10759565724364
H           1.39781520458599   -0.09816885074998   -3.44866047656217
O          -2.05910362267642   -0.18977033796444    1.69855450311160
H          -1.06540431289583   -0.28340809857531    1.74010499189658
H          -2.40894282607174   -0.92061277159497    2.21263602308736
O          -2.56348532914686   -0.34351978900676   -0.78899484135899
H          -1.94833433556596    0.44868019252812   -1.24902321996471
H          -2.07184072639378   -1.21526257845868   -1.01922386429834
H          -2.44837917230087   -0.23036814345617    0.22462747984554
N           1.94336340712210    1.71936447253303    2.63971502521081
H           2.21282103958900    2.45621856331925    3.27966320360887
H           1.33510381908433    1.06851787540411    3.12273308979526
H           1.39763727349088    2.11803683208180    1.88207672475398
