    26
        -50.46009912  Gyration_radius:  2.46678311641 Dipole_moment: 0.824
 S          -0.02475783939723    1.12537153842970    0.70620444495695
O           0.02850951119979    1.18334396627146   -0.75074148133778
O          -1.33437630804034    0.70042202323992    1.17449562289855
O           1.03527518500192    0.26037757898232    1.22535804311455
O           0.26919736685352    2.54634396099160    1.26115046679663
H          -0.47867346076401    3.05865842854303    0.86011742357273
O           3.03477896546070   -0.59863180153019   -0.25109813945907
H           3.70016417313139    0.07726314498205   -0.38479010893635
H           2.35564900688171   -0.19914681275561    0.34212667383648
O          -2.33671765906052   -1.30266589035218   -0.08144659612572
H          -1.96856973520994   -0.48816629989355    0.36456979222197
H          -2.84766743254696   -1.75697307174248    0.59183126429013
O           1.04053237778149   -0.83072227352764   -2.01277743123340
H           0.60600039971843   -0.00857259978688   -1.65707061178431
H           1.90901384598007   -0.85267960835905   -1.55133302515953
O           1.04719370058166   -2.35042085855473    1.35254461698117
H           0.95030695295829   -1.37501156421960    1.47238602986309
H           1.98628972537409   -2.48821604473643    1.19727715636915
O          -0.25692446175907   -2.56365794182100   -0.82353140434304
H           0.26017052107735   -2.59691382969206    0.06309110704158
H          -1.14671564644821   -2.10427534514556   -0.59827461687201
H           0.30335031842176   -1.84114849874565   -1.44133157516496
N          -1.84651914583522    3.20761619742073   -0.10389162369612
H          -2.44416197650782    2.56018695741030    0.39665227204169
H          -1.42648672006308    2.68419839270312   -0.86569946722918
H          -2.41486165481062    3.95342026188577   -0.48581882263245
