    26
        -50.45249293  Gyration_radius:  2.48649334423 Dipole_moment: 3.123
 S          -0.62239667406367   -0.48419899734625   -0.84338423033485
O          -1.30508414110128    0.25820794689390    0.22051698249919
O           0.64605827822097    0.15037268720117   -1.18305742912959
O          -0.42900853735771   -1.87739255112812   -0.45270540736460
O          -1.53095713296653   -0.50574939347088   -2.08843177808063
H          -1.79677958817647    0.43740908680029   -2.29073336849188
O          -2.28784645635649    1.94623573561369   -2.42964691542410
H          -3.11416963913403    1.99218007392016   -1.94382953678279
H          -1.61175073679785    2.41613888677195   -1.86646976581319
O           1.97666758266497    0.83033386378030    0.86923796115259
H           2.88753846385499    0.84666182743756    0.56655355458386
H           1.42643614159818    0.60619199375078    0.05272862450714
O          -0.97587070963134   -1.37490721728160    2.15674238697573
H          -1.19046964555093   -0.63446968540404    1.52044701078727
H          -1.12444584788212   -2.15925363960144    1.61467705631109
O           1.89178042548814   -2.70575582187625    0.21852209806194
H           1.03930535069243   -2.38184503365907   -0.19509187451886
H           1.83623592361510   -3.66292987737226    0.22949487422529
O           1.52208629452197   -1.23139546425030    2.23855311321798
H           0.46034245341927   -1.27685069024455    2.31140441535236
H           1.76573857093240   -1.91612358235583    1.50710209199806
H           1.73126928847989   -0.31698495045723    1.77997694026006
N          -0.48892937120470    2.81359786323961   -0.69106293635534
H          -0.74136714028654    2.01549145219158   -0.10941888297701
H          -0.37572573597008    3.62249485287787   -0.09334320276516
H           0.41134259300474    2.59254062396793   -1.09878177189205
