    26
        -50.46400453  Gyration_radius:  2.43632453013 Dipole_moment: 6.307
 S           2.07786490368676    0.67227498391628   -0.55356363946434
O           2.01216754974929    2.10872220616537   -0.41082544326346
O           2.17847119055997   -0.03048459494594    0.70378901672169
O           1.01027132122806    0.13969984407296   -1.40351426282010
O           3.40996333314724    0.35836537233986   -1.36553468590614
H           4.06233422471837    0.78678234965367   -0.82192119041731
O          -0.27061455588778    2.00926783492388    0.87655171786974
H          -0.80861665568871    2.09896315702714    0.07917866821289
H           0.65260064344196    2.08554929393741    0.55585547561956
O          -1.28573361364932   -0.05222475880501    2.11328979913348
H          -0.78719317579419    0.70987662277890    1.70770006333903
H          -1.59463354318645    0.26090360186966    2.96416044676920
O          -1.26071052207829    1.33325770775191   -1.67811086658358
H          -0.34817483590496    0.93616671913366   -1.61195375938237
H          -1.31812751612368    1.70775479165468   -2.55792248767016
O          -0.05339062260039   -2.21281161185934   -0.86085511088662
H          -1.29685596183801   -1.52856887662840   -0.60143271342913
H           0.47625786069667   -1.45046369311240   -1.18601628331881
O           0.69981723905223   -2.01702984111032    1.63538022069516
H           0.27959836154755   -2.35597611454720    0.06669166362662
H           1.38506744105216   -1.36250050784164    1.38582344924516
H          -0.00627631083691   -1.47847469330730    2.01916922247531
N          -2.14393884027413   -0.84974174310691   -0.33086161959104
H          -2.00421244258392   -0.59598703053157    0.66689258686926
H          -3.04841312431277   -1.27894451313647   -0.48520718136421
H          -2.01752232811236    0.00562350371636   -0.90676309646968
