    26
        -50.46341949  Gyration_radius:  2.49317002767 Dipole_moment: 5.546
 S          -0.48905912825751    0.79037374377901   -1.83967886757547
O          -1.14636707155193   -0.49352739679990   -1.67716328105609
O          -0.97822050358587    1.79990307636378   -0.92813808213382
O           0.96535867105883    0.64373923509211   -1.81162607747350
O          -0.83312561861509    1.31387006598374   -3.29377273447132
H          -1.66020466968383    1.75782355821591   -3.13987125095331
O           1.47838546806582    0.67320465093614    1.90593486864305
H           1.70588632680838    1.47054680564666    1.37544952899470
H           1.67806806831514   -0.38247891113756    0.91848938317816
O          -2.20181049023066   -1.63993832667174    1.83045575690185
H          -1.87276181142627   -1.97994281852634    2.66415713978948
H          -1.65824201913894   -2.03430404561240    1.12636287837700
O           1.56467639414391    2.55077451664523    0.00341094586105
H           1.49686566912442    1.95241953638840   -0.76124176533115
H           0.67850291595237    2.91842659322270    0.08629344531057
O          -0.55372143742266   -2.51308190512183   -0.21318835741824
H          -0.82616627703722   -3.28891518706210   -0.70609299783190
H          -0.82897295070474   -1.73349707726121   -0.77467485239792
O          -1.11283089829955    0.88073316750684    1.61637658500469
H          -1.18767999984604    1.23157212134306    0.71104474061079
H          -1.66108620432295    0.07754634595660    1.65652560435727
H           0.48947923524768    0.73279467469365    1.97996674113121
N           1.74588686307749   -1.05355101302418    0.03663016262939
H           2.67279770830868   -1.45293513382883   -0.05829833957024
H           1.51575765105398   -0.43540556333858   -0.78754917309211
H           1.01858410895415   -1.78615071338393    0.08019798851515
