    26
        -50.45448224  Gyration_radius:  2.44760887996 Dipole_moment: 3.747
 S           0.82688172332308    0.48644846415880    1.08451325299961
O           0.30273966187802   -0.68139666318323    0.35110828114654
O           0.79487323496848    1.67560655347826    0.26029246751228
O           0.08091943920661    0.64206599241490    2.33495488660900
O           2.28974037945157    0.17164467262700    1.45577431902984
H           2.77132178207680    0.30380127656824    0.56780491681638
O           0.93317279987405   -0.87944806014743   -2.18135968924653
H           0.71755572831994   -0.83355598112023   -1.21981588330026
H           0.82865533116952   -1.79704337738080   -2.43726118838368
O          -2.94344262731438    0.56573313294595   -0.15744873338272
H          -3.46910037426267    1.36774360208636   -0.16205092791706
H          -2.16492967124257    0.75471496129578   -0.76325171684028
O          -0.93639623612265    1.22376806666193   -1.66004499540135
H          -0.30097103079735    1.52344052184329   -0.97231474391061
H          -0.45963865488917    0.53375536461343   -2.14105724552815
O          -1.35772176826302   -2.45792940258983    1.26703697142094
H          -0.60581099601461   -1.90767566257609    0.93062790208163
H          -1.84962244520754   -2.74377794907849    0.49403291673453
O          -2.21143127481493   -0.22424805057378    2.14350747142094
H          -2.53806759144168    0.14690027982346    1.23578372050479
H          -1.99562816488617   -1.20433194251518    1.94800645083664
H          -1.23071674554892    0.20247154763605    2.30288817132176
N           3.13847668454351    0.67717734064748   -0.92567803729855
H           4.08365429534026    0.83684951371386   -1.24929283198549
H           2.63109057930165    1.55571741743060   -0.92585236352919
H           2.66439593137110    0.06156841124642   -1.58090336171575
