    26
        -50.45448221  Gyration_radius:  2.44769013866 Dipole_moment: 3.744
 S           0.33309273915906   -1.28663415027997    0.57462148226844
O           0.75899474512060    0.10014630430694    0.30662296863916
O          -1.10967793663746   -1.39940016377847    0.56239244732116
O           0.98068697484058   -2.18164157348119   -0.38657190221278
O           0.85419343369285   -1.65992842811285    1.97677775896943
H           0.20476568824050   -1.16632170523795    2.58716707016630
O           2.66345984386517    0.84591632727016   -1.29657031030275
H           2.38046928783523    1.70523998239725   -1.61710457466002
H           2.04764629600087    0.60793164287021   -0.55808709741159
O          -0.62494685028496    0.34623533106594   -2.91594681862280
H          -1.26477386285327   -0.04778898549130   -3.51175214701703
H          -1.13069622581801    0.53307771280858   -2.06861782662212
O          -2.02347403083369    0.67626735051659   -0.75856928052462
H          -1.77908768435813    1.37648021750722   -0.13836952846807
H          -1.80231524299035   -0.15606216564182   -0.28426974012543
O          -0.66882984264799    2.01348997654785    1.37912604740999
H          -0.10333858638281    1.30059381179155    0.99798101963645
H          -0.12236294865205    2.79986575604903    1.41623885019944
O           1.46283834450536   -1.04367512496906   -2.51118872881024
H           2.10443996756884   -0.32647492029234   -2.16606123924400
H           1.26214067186627   -1.62407941206752   -1.62098831834388
H           0.59197493999395   -0.52524179153785   -2.71430975926907
N          -1.01710518224105   -0.34287166068894    3.16453193848906
H          -1.71306795874743   -0.79095529992366    2.57792104129202
H          -0.96824615217003    0.63021388374825    2.87507027810876
H          -1.31678043809379   -0.38438290538190    4.12995637915809
