    26
        -50.46849921  Gyration_radius:  2.45638625065 Dipole_moment: 4.935
 S           1.20140842807272    0.18713553555741    1.61547084006417
O           1.67033278340837    0.83718458666762    0.38313165214602
O           0.80285452757979    1.13558548336965    2.62273119324126
O           0.22956406613482   -0.84268054226133    1.32148258770113
O           2.47550044202857   -0.57037158728937    2.19929405013103
H           2.84395949422692    0.05818661408460    2.81205020837297
O          -2.41296076874457    1.16355854801889   -0.40452066901896
H          -2.29208332611547    1.32315841584032    0.55934851367057
H          -1.09419885321271    1.36759944587673   -1.05478999563531
O           1.97694588613072   -1.58735671003933   -0.64290196750578
H           2.10319624666084   -0.66737170713760   -0.34324020629840
H           1.49286893097304   -1.98750769752310    0.08905232038349
O           0.21745289203110   -1.16783192539272   -2.54528215290926
H           0.91761947283670   -1.39855688067464   -1.87477336275267
H           0.45854441598750   -1.61563313614827   -3.35666371698293
O          -1.82049002906464    1.10765913760352    2.19127050509300
H          -0.87866714220339    1.24607780842690    2.41094623498817
H          -1.98767968944031    0.18222326726455    2.38645282554671
O          -1.74158820088834   -1.40413459603177   -0.47678618787519
H          -2.44261001780323    0.18111573971226   -0.47672763640326
H          -1.22308434728764   -1.51276075392139   -1.28473825949340
H          -1.09048109011116   -1.30234882136015    0.23974015539102
N          -0.09255604985828    1.34613355858396   -1.50467283938436
H           0.61466511629700    1.23515565510170   -0.72813846383053
H           0.09537618961678    2.18659667061964   -2.03937946259302
H          -0.02388938726272    0.49918390104626   -2.09835618604772
