    26
        -50.46193186  Gyration_radius:  2.40643174225 Dipole_moment: 2.037
 S          -0.76806556325492    0.49495049759478    1.03698822146564
O          -1.02746347420828    0.44782350696697   -0.41894591231309
O          -0.26251234307608   -0.79668441387763    1.48129663047760
O           0.11946320264183    1.59100717184921    1.36265019711199
O          -2.12609135158153    0.76862699431227    1.72288091314529
H          -2.64383138152526   -0.06444921463751    1.52331918503518
O          -0.25606138186452   -2.01923731063143   -1.04264780999784
H          -0.68644116298767   -1.15037286105165   -0.90295475725512
H           0.01514523201508   -2.28803044965911   -0.15848268734217
O           1.79728803717592    2.77340214546962   -0.20151355814540
H           1.18489264015495    2.37479116480694    0.47083662908477
H           1.65866067344295    3.72101089191039   -0.16044669103362
O           2.25168442629714   -0.33876279151411    0.72344405808198
H           2.44797626684577    0.55606848842597    1.01025026570530
H           1.38057204489965   -0.55889991207622    1.11129193061876
O           1.93366880840919   -0.77912282364595   -1.85318260937275
H           2.27071295948391   -0.66744285963071   -0.92813110776054
H           1.17563880071870   -1.41029953992492   -1.75546113528695
O           0.69924862281273    1.34592943944632   -2.02498868001476
H           1.21876465544142    1.98661512290454   -1.43425435188050
H           1.31276832660474    0.39998018309760   -2.06309346353710
H          -0.09394793630593    1.05672028457340   -1.44300985253087
N          -2.94693456325202   -1.61195363873971    1.05796611740520
H          -1.99700417994700   -1.87944884898819    1.29866654983405
H          -3.06348000951607   -1.72199797582357    0.05880995675871
H          -3.59465134938711   -2.23022326102932    1.52871195177054
