    26
        -50.46583618  Gyration_radius:  2.4873063926 Dipole_moment: 6.455
 S           1.80173057576483    0.56996700013521    0.64707536146387
O           2.74044872869816   -0.51586929589924    0.47280024640379
O           1.36148397486451    1.11688996976489   -0.64462868533238
O           0.68478963056175    0.27409459500466    1.50779814307944
O           2.61452426488483    1.74223091445202    1.34866956907225
H           3.49450202671739    1.62722699607678    1.00567185599082
O           1.44447807332042   -2.72601839203949   -0.04543967244543
H           1.90459430544577   -1.90106534548557    0.23790312968488
H           2.09538011761754   -3.22145299612035   -0.54604383326069
O          -0.24132174704165    2.74601901184222    0.80471716117062
H          -0.06847887138177    2.21567137670136    1.59114829690560
H           0.39737606321839    2.40365163553322    0.15974341305799
O          -2.45374710169846    1.51490915047421   -0.09026581627964
H          -1.80105385902544    2.15461118391541    0.27368143129676
H          -1.63111618957768    0.84537361585674   -1.13056028582332
O          -1.02528520760595   -2.30806739543697   -0.85773345244598
H          -1.43026351752939   -3.16943066043013   -0.96722723333542
H          -0.10713946791656   -2.47005911658458   -0.52714128667204
O          -1.85313134901934   -0.65213099940256    1.31968090702746
H          -0.95902836473716   -0.35762164239578    1.56673042862284
H          -2.46185215839932    0.76965825447057    0.55691216444786
H          -1.70991708814091   -1.35325377845118    0.66957033799402
N          -0.88728542147770    0.29802938902449   -1.72861835664118
H          -1.00563242884814   -0.71260029944891   -1.55637075319306
H           0.05666583279617    0.59401418893998   -1.35217794909850
H          -0.96072081147946    0.51522262950965   -2.71589512171664
