    26
        -50.46193167  Gyration_radius:  2.40645215049 Dipole_moment: 2.039
 S           1.10676483061391   -0.46337221500095    0.68717801971384
O           0.69703324095754   -0.65048860241847   -0.72223700398377
O           0.95390691231475    0.93768497394497    1.05435975868688
O           0.37211751887356   -1.35823973257627    1.55587101526792
O           2.60176981115397   -0.84720321744273    0.77116543301370
H           3.04122048321505   -0.13738170667931    0.21903650174795
O          -1.66356316253564    0.77114422890277    1.53170683374678
H          -1.78207634228977   -0.03639083725540    2.03700955281017
H          -0.69654656238516    0.90604650310920    1.46591750094428
O          -0.07492686340648    1.80015406909781   -1.40859777483760
H           0.30310926920595    0.90244855805383   -1.30455511726442
H           0.09516456443651    2.22280788718620   -0.56007883179745
O          -2.48757019959754    0.81042924612314   -0.96980906232976
H          -2.38789907741746    0.87569021845408    0.01363113068081
H          -1.71820000059345    1.32659188189122   -1.32170794333466
O          -1.91192745219750   -2.46888328180037    1.09859345077105
H          -1.84436672011151   -3.41256358710328    1.25300039093555
H          -1.03595932351914   -2.08202653230545    1.36157485149733
O          -1.62633982209903   -1.48118122885744   -1.24851452421232
H          -0.63731876136424   -1.24074861900094   -1.12179730100575
H          -1.87918112399632   -1.95084906237071   -0.38522785922965
H          -2.11705821617582   -0.46799616802659   -1.19929753964452
N           3.22693518033396    1.26976213403815   -0.61115611841612
H           4.06223720940971    1.83978989072026   -0.58429429380937
H           2.50646056687370    1.70859956779992   -0.04520033690623
H           2.89621405026909    1.22617564184123   -1.56657074255683
