    26
        -50.45510218  Gyration_radius:  2.47463318183 Dipole_moment: 3.186
 S           0.00061533917868    1.40987501091400    0.19615254907722
O           1.28221555102809    0.77390789870950   -0.09378431562585
O          -0.92884941107808    1.24301828335848   -0.91360661136711
O          -0.56740533208557    0.90004392687961    1.44326551684589
O           0.24902082815498    2.92623340331708    0.41228888633675
H           0.62568809247132    3.19281046549945   -0.46619881860495
O          -1.86337355772380   -2.36091472740002    1.57349454160610
H          -1.94238061191518   -1.93231575268619    0.69187054659873
H          -2.62127403799144   -2.06791626435542    2.08361637448219
O           0.64683438896690   -1.63230270718328   -1.27533436004786
H          -0.31527604557674   -1.71061993805447   -1.25603487736962
H           0.83232902068701   -0.69270235504089   -1.11306939430327
O          -2.07140832068576   -1.06837849678406   -0.76234886128965
H          -2.86513109484426   -1.02627375765860   -1.29813160479991
H          -1.67859888463973   -0.15440088113777   -0.78266043437477
O           2.12973849611905   -1.52442255541619    0.95472864147965
H           2.13694077260453   -0.58663581266751    0.67062250352664
H           1.74556053450721   -1.97495614666038    0.17522951492789
O           0.21062396878612   -1.19213214083671    2.51408915390867
H           1.06936468038693   -1.43133036547870    1.93097840986794
H          -0.07293245740851   -0.24521293650636    2.15699914988502
H          -0.56038424570935   -1.78265150333057    2.20179345806565
N           1.10397258493399    2.89421434085948   -2.05042301119233
H           0.26922238846553    2.34999603210243   -2.24362035099448
H           1.85600842209674    2.23494410336638   -1.88939861907572
H           1.32887894128172    3.45812288616003   -2.86051798756043
