    26
        -50.45326343  Gyration_radius:  2.47993861709 Dipole_moment: 3.055
 S           0.76787638845735    1.39173893176485    0.84563336038008
O           1.13908938696486    1.66868230539489   -0.52294521809118
O          -0.63413145461424    1.72013041953746    1.11128928495503
O           1.10505905026352    0.05883052069224    1.29912640844985
O           1.61540662402754    2.37857026107313    1.74758438477958
H           1.44318737618916    3.22358576243340    1.34524215663532
O           0.97679792109073   -1.86074365137542   -0.62353543872898
H           1.21470330322601   -1.26072481908612    0.10362785057218
H           1.60980887996441   -1.61780734331295   -1.32942454702415
O          -0.80294379114326   -0.01000667778153   -1.36543124325998
H          -0.26587480595343   -0.82003730864561   -1.21463837570909
H          -0.21198221016754    0.72686191319033   -1.14550764306588
O          -3.24226735069144   -0.15631331453143   -0.49728755523782
H          -2.34220436594603   -0.13540140423369   -0.92899749703055
H          -3.69243601934529    0.64113763420234   -0.78189734873698
O          -0.58574074623312   -1.87175687413083    1.93691883376766
H           0.15760282915917   -1.23230029068810    1.91299787143804
H          -0.48967935850631   -2.38983236784932    1.12938205530760
O          -2.28007086673251    0.00381880235256    1.82152807480182
H          -1.69396186537945   -0.84207355129403    1.93126006414955
H          -1.59272103975560    0.76866920916671    1.61114992252846
H          -2.79304980111056   -0.10281759026206    0.92088575878119
N           2.55528546009468   -0.31535990985468   -2.23109535743884
H           2.18225754642059    0.47062928041906   -1.70061241228412
H           2.29487073060686   -0.17160336650748   -3.19921314924618
H           3.56511816910621   -0.26587657067454   -2.17604024069043
