    26
        -50.45326343  Gyration_radius:  2.47996732742 Dipole_moment: 3.055
 S          -0.92219420036241    1.51226465843498    0.32258688891522
O           0.41988681634615    2.08998743829049    0.22727665909406
O          -1.44753116498221    1.14622221480053   -0.97260581986015
O          -0.98716584331728    0.45929210387650    1.31405479350966
O          -1.84857590696507    2.67353219607887    0.86931177991135
H          -1.85716802890561    3.28842829404415    0.14314261782171
O           1.05662004069126   -0.80746725075062    2.41432309311311
H           0.21526921371695   -0.33220518436760    2.24606156278121
H           0.98426191127239   -1.62240080939060    1.90405812778267
O           3.16862781147368    0.04754098196352   -0.86164663190597
H           3.45042813237934    0.70199068284815   -1.50341010833959
H           2.24561010656124   -0.22331257650078   -1.12922776352591
O          -0.69191969304594   -2.05535483967924    0.32034223137392
H          -1.41357876852269   -2.20775263135600   -0.32307750236733
H          -0.96791897939278   -1.24095914791228    0.77417275232916
O           0.67679177065595   -0.47998767052057   -1.34932393190587
H           0.30080344773065   -1.21242592386654   -0.81125354708725
H          -0.01139935524972    0.20331140368455   -1.35786186674722
O           2.38898508684044    1.04079577689475    1.31411798392373
H           1.56565954259647    1.55822820514858    0.91909555441115
H           1.96766023067782    0.25297261783219    1.83654797431984
H           2.83613167340984    0.63206711004797    0.46638523288095
N          -2.64000613045067   -1.52542638390015   -1.52035593433247
H          -3.63519705172259   -1.58099154041070   -1.34223209780773
H          -2.48980133080076   -1.76747307782302   -2.49223975781444
H          -2.36427934063565   -0.55087664746866   -1.40824231047528
