    26
        -50.45343507  Gyration_radius:  2.49307570752 Dipole_moment: 2.395
 S           0.07135839591332    1.21325004180666    0.05922932603492
O           1.01483765123690    1.18744836968723    1.15509678169568
O           0.36406013044181    0.16137853002868   -0.92217247391041
O          -1.31671472517482    1.13716483417430    0.50471761671887
O           0.19829814976151    2.56849550292288   -0.69865888248684
H           1.16914923711814    2.61496930646867   -0.90733902520812
O           0.03438558499902   -1.21138859818168    2.02705588365581
H           0.19856637136153   -0.26221777942317    1.90949422584359
H           0.75129641967913   -1.64114375913377    1.52477693917687
O           2.18094359042124   -1.36651468872109    0.34511285957807
H           1.56818462406640   -0.89000588313008   -0.24566684066982
H           2.55385916859911   -0.69047813564567    0.91726059912202
O          -1.43601828862842   -1.11574342357914   -2.27725871227114
H          -0.66418589245144   -0.69922486197603   -1.81141047763088
H          -1.54720933749974   -0.63464159235235   -3.09923992302116
O          -2.34932960775758   -2.14397190018445    1.52384608310333
H          -2.83947873320443   -2.00071823902142    2.33588602652742
H          -1.41656365135532   -1.84212938510555    1.71157263750963
O          -2.93688220427468   -0.53635476951023   -0.31970106773085
H          -2.45570321454976   -0.86480428288796   -1.16582496867263
H          -2.78298751985210   -1.26509428452888    0.41230191525102
H          -2.31642568485084    0.24951562053282    0.01649169465013
N           2.78044858167200    2.14472124859788   -0.83764926129839
H           3.59979543993143    2.73837196947743   -0.83032644393458
H           2.96619290549430    1.34681839294088   -1.43172547744609
H           2.61012261891114    1.80229777674409    0.10413095541784
