    26
        -50.45675001  Gyration_radius:  2.50026217495 Dipole_moment: 1.713
 S           0.14459711029727    1.22358813240439    0.42991681596383
O           1.26684874602632    0.35740852148760    0.74232262491871
O           0.12199334154127    1.61210207225039   -0.97197832727910
O          -1.12574090450806    0.59527738045272    0.81953585540371
O           0.25122800976414    2.50912263205195    1.29843894392847
H           1.11913508603862    2.87611263975144    0.99574602109831
O          -1.17151740607839   -2.84269502460399    0.19398761270799
H          -0.22503559325685   -2.66833256487976   -0.07119682215586
H          -1.21504256077396   -2.53391577614390    1.13341118902735
O           1.27167446718225   -2.05729730986613   -0.26751027952736
H           1.95026269867800   -2.51711379297393    0.22993038262252
H           1.27465431246789   -1.13061682728626    0.07505391048010
O          -0.79977254720801   -0.04459657167998   -2.74115114598938
H          -1.20078642552284    0.50299762654430   -3.41879214727652
H          -0.34748599076208    0.58131846163059   -2.11633168022178
O          -1.16630548242934   -1.48863061939651    2.46058450254473
H          -1.03503783072653   -0.65297999043825    1.96210254272513
H          -1.92407690835780   -1.34207188849630    3.02888988129242
O          -2.28172387029917   -0.91876222052227   -0.85741231825281
H          -1.76576840682233   -0.68901131511684   -1.70495271220415
H          -1.82981921321670   -1.88494960248970   -0.43734230123414
H          -1.94641690644818   -0.23331637846511   -0.18593210880361
N           2.51085135920693    2.81224745629651    0.03764024889981
H           3.36534139631244    3.33506486901067   -0.11037962663614
H           2.01342413323585    2.73349607172869   -0.84263952807296
H           2.74451936566087    1.86555400874809    0.31805847604081
