    26
        -50.45510213  Gyration_radius:  2.47463927781 Dipole_moment: 3.186
 S           0.16756099045042    1.27206112630211    0.61593271842514
O           1.43496901763812    0.61167073647560    0.90037401009201
O          -0.12330257307110    1.25364130704710   -0.81446740580497
O          -0.92480414700930    0.67247640730951    1.38086283951919
O           0.26512063770048    2.75190832889078    1.07243612642681
H           1.01937431566162    3.08120502549463    0.51798296361218
O           1.08273036238726   -1.94364898517250    1.02984708058069
H           1.20424455938881   -0.95616415938225    1.04322857440872
H           1.83245151273601   -2.30807143184370    1.50309168870158
O           0.56532124272991   -1.27503044978625   -1.66343384185565
H           0.82870606483702   -1.77330714263134   -0.87951122406888
H           0.59022373511205   -0.34154475587439   -1.39585877878380
O          -1.91710509763398   -0.32151061694906   -1.99832952529644
H          -1.42750014869265    0.49184520074559   -1.75546505570005
H          -1.19309751462963   -0.96215631040740   -2.15182747491309
O          -1.44379053110937   -2.79780526418158    1.26863017270878
H          -0.50465402538084   -2.52846179493694    1.15609200744877
H          -1.60244025343206   -2.83045736633387    2.21426497821634
O          -2.66637796941456   -0.74835159946307    0.34286594528051
H          -2.01668276601947   -0.06339355292336    0.80470123922788
H          -2.45856862393098   -0.62796830043189   -0.69490089293489
H          -2.28474968967754   -1.64600201199733    0.64159698672410
N           2.25024270469478    2.89187536291200   -0.61179525901651
H           2.55333001114211    2.01691131161192   -0.19599057825824
H           3.06267642630518    3.42410996565719   -0.89726816303173
H           1.70612175915624    2.65616898979141   -1.43305911173959
