    26
        -50.45674999  Gyration_radius:  2.50044539367 Dipole_moment: 1.714
 S           0.86111001095725    0.92659936633831    0.32007211999888
O          -0.23021057643650    1.54555490111589    1.05676599108662
O           1.19757815372829   -0.38749090549569    0.83691142031636
O           0.55273752152486    0.86129086848255   -1.11556546271024
O           2.11429852087713    1.84068634658295    0.43052622089237
H           2.27065102625759    1.83804719581599    1.40786497557007
O          -0.54403437179682   -2.31534850134833    0.51904030201921
H          -0.04740585522813   -3.11263156680296    0.71152988628462
H           0.08663212314011   -1.56902403235261    0.66526570505488
O           1.22406989897820   -1.26134275278562   -2.55850402889880
H           1.51899752504272   -0.90678331905196   -3.39876060373567
H           1.13257763939106   -0.49149683902556   -1.95602544865626
O          -1.23919227958976   -2.01297328955210   -1.97590942224255
H          -1.09171551782840   -2.22716736238549   -1.01205181285527
H          -0.32409188089366   -1.90277252865156   -2.33655630045547
O          -2.67346161049205    0.83792268775482    0.55349663094216
H          -3.20241400879489    1.62429396462790    0.70085551777513
H          -1.75362770151288    1.06782247097146    0.84988899035837
O          -1.83712929588910    0.36499361353335   -1.80987983765429
H          -1.66638005169837   -0.76165054078461   -1.93250333105627
H          -2.32228620958013    0.50107547206192   -0.92483449966545
H          -0.89422504690755    0.68947876034106   -1.61265012939629
N           1.87571603928621    1.35216995404852    2.97830017192740
H           2.21830448265793    1.46285962847560    3.92475449757998
H           1.85961456571397    0.36518593965004    2.74367729527959
H           0.91388691909244    1.67070046843735    2.93429116223741
