    26
        -50.45674971  Gyration_radius:  2.50114147614 Dipole_moment: 1.716
 S           0.96255424458311    0.70800468457180    0.52392989603606
O           1.72961751679239   -0.52826210111247    0.53918295938375
O           0.60481360847327    1.11644268933299   -0.82220678356434
O          -0.23299396661875    0.59226740403543    1.37128314659525
O           1.81998877531189    1.83083633442586    1.17381743563430
H           2.59664153250565    1.86063395872939    0.56106418583619
O           0.49946090739512   -2.79690411582216    0.28984091003307
H           1.00989472234172   -3.42238584800012    0.80761737677771
H           1.02237649170049   -1.95223490374020    0.28835949845221
O          -1.12579241532068   -0.34608553062785   -2.13367982096494
H          -0.44548949572511    0.17385068266676   -1.64104633367346
H          -1.38967969097114    0.20907552141693   -2.86966478024105
O          -2.97015744029082   -0.75390232175492   -0.33496844644315
H          -2.33846856985315   -0.70573622891768   -1.10610693538659
H          -3.02771316074205    0.18132508638641   -0.01653871824443
O          -2.54400534661790    1.66581801776173    0.63366230230148
H          -2.92085000047156    2.02220274828752    1.43966914167580
H          -1.62010742760770    1.41606042487247    0.85292895643734
O          -1.47008431450174   -1.62260454662355    1.40750555166619
H          -0.78646103822849   -2.22745623312406    0.95550370720423
H          -0.96111872241495   -0.75258704388159    1.54103764385896
H          -2.23236832630012   -1.31710960993912    0.60968935164350
N           3.43904319339703    1.32486694277019   -0.80358554574222
H           2.64711205641043    1.44570081135883   -1.42623167851431
H           3.44130233448535    0.34751630646637   -0.53279830472957
H           4.29248455226707    1.53066686046153   -1.30826471603277
