    26
        -50.46455191  Gyration_radius:  2.42038646837 Dipole_moment: 4.945
 S           0.34994852567719    1.14251098768449    0.57277231012563
O           1.15583261195844   -0.06388065210261    0.33765490031098
O          -0.06239208884854    1.72464806550816   -0.69443302204277
O          -0.78230043592275    0.83735469023712    1.44063703912638
O           1.23621062711096    2.15229591190761    1.33859689649036
H           1.93273128391940    2.38513108888980    0.66100596497005
O           0.26296752173995   -1.59828907060376    2.33562812696560
H           0.74816466698795   -1.09151925164237    1.65418711503371
H          -0.20410305288745   -0.92748631658520    2.84205148981700
O           0.14346831861802   -1.74247743486599   -1.37117478926618
H           0.85588006344872   -2.23992579886778   -1.77493148806669
H           0.57314716882972   -1.09622892455830   -0.75122631906664
O          -1.79836669407557    0.14385478288696   -1.86455700332953
H          -1.20542905978720    0.86805229718992   -1.55138742826226
H          -1.20590747717606   -0.61039983881767   -2.01710538437407
O          -1.48914866018080   -2.60140175572315    0.63233563424073
H          -0.86563420439782   -2.39625823155443    1.37628927437731
H          -0.94152232565756   -2.53892715893017   -0.17344045769313
O          -2.69613562310136   -0.42878061197598    0.41216235230283
H          -2.30386473897906   -1.41833521551250    0.54068249479293
H          -2.02388628039661    0.16055461924140    0.91808502896885
H          -2.49861541838035   -0.19043554530538   -0.58827789977427
N           2.67318852299574    2.42411625646612   -0.81232463772228
H           3.13639923731249    3.22009827460311   -1.23093094762565
H           1.77220771853129    2.28620155022500   -1.26260519225372
H           3.23715978265957    1.59952725220766   -0.96969407804673
