    26
        -50.45986740  Gyration_radius:  2.50828037673 Dipole_moment: 4.041
 S           0.28438456237015    1.49712648763555    0.63609421948209
O          -1.11416052296446    1.16144747715990    0.73653554808282
O           1.03933619977668    1.10358365640723    1.82453901946831
O           0.92922796362621    1.01605439374096   -0.57450029210459
O           0.36246271478469    3.07905667058845    0.54480300951253
H          -0.35291637377135    3.39322066654958    1.09026576776018
O          -0.68719971433709   -0.68532922046413    2.88426417985051
H          -1.49340087899255   -0.39878241163903    2.44414664614237
H          -0.03954825691340    0.01154505552373    2.67762010223148
O          -0.47178431260222    1.83637732667330   -2.66780028287001
H           0.01775039969761    1.58684488943859   -1.85730451391238
H           0.17160796706887    2.24477305025077   -3.24987503091671
O          -1.24816998542714   -0.72171816978746   -3.11420244886915
H          -2.15440367446460   -0.71078564300161   -3.42699451825620
H          -0.98052925623472    0.21642510613585   -3.02310525718701
O           0.17208876221870   -2.56997919572749    1.19472794964586
H           1.32902499457156   -1.78143589524257    0.87175041865078
H          -0.16146606397961   -2.10435464126658    1.99527289877726
O          -1.39061835833446   -1.27715517868696   -0.44705054704193
H          -1.28496986574790   -1.18037082600374   -1.41380534917699
H          -0.46367559904243   -2.28008102050892    0.48960435767037
H          -1.38503302723337   -0.37616513603201   -0.08222171377917
N           2.09548910221545   -0.98897054534364    0.66085978730076
H           3.04612315376968   -1.34000790615221    0.62419357914760
H           1.95945397305545   -0.24676738591404    1.38239817256061
H           1.82092609687891   -0.48455160433730   -0.20021570217121
