    26
        -50.45986799  Gyration_radius:  2.50829606052 Dipole_moment: 4.027
 S          -0.53787046861272    1.42586580869534    0.63472446720086
O          -1.43609740494651    0.95675761787882   -0.39097780580442
O          -0.91804885828970    0.95818631295049    1.96638431441400
O           0.86575547810742    1.15676142157874    0.36884064384450
O          -0.66039214284033    3.00760886152923    0.64985738805037
H          -1.56780914936691    3.18643912813792    0.42038612434062
O           1.46984528399536    2.10367916940691   -2.03029525971315
H           2.25659573585406    2.63485004156748   -1.89443421977158
H           1.19335500853232    1.79913821726573   -1.14166958420961
O          -0.41460846286584   -2.67257133422697    0.86726062976882
H           0.43385476103584   -1.74912176603544    1.56865659605402
H          -1.30746328854376   -2.34138651860540    1.11648018826553
O           1.71252545326384   -0.43752272804641   -2.94264803812711
H           1.38102169769818   -0.46714290236369   -3.84172480012694
H           1.66852823993042    0.50170157955557   -2.66726084675043
O          -2.53357187222851   -1.09654338328765    1.27987196239924
H          -2.74419638053934   -0.83210520384436    0.37906204128039
H          -2.07789686446528   -0.32350486696176    1.65745948324315
O          -0.32974338616315   -1.33239029809632   -1.37031783712510
H           0.46069309180739   -1.10740818334218   -1.89916378481160
H          -0.31494151109662   -2.35627421370892   -0.06831851558204
H          -0.74340756278715   -0.48666710552884   -1.12835665016660
N           0.95237735817794   -0.87091330842600    2.03759108917443
H           0.20090941680658   -0.23984639857277    2.39378651544768
H           1.36288154330601   -0.28968132079687    1.28579458856766
H           1.62770426423629   -1.12790863671554    2.74901129012743
