    26
        -50.45510222  Gyration_radius:  2.4743456384 Dipole_moment: 3.183
 S           0.36005611082451    1.26123899573375    0.55315822533869
O           1.31895183354616    0.35666538263573    1.17394387499672
O           0.38666957891547    1.13539615130067   -0.90102689354050
O          -0.98841120150590    1.04157957117299    1.07390823696720
O           0.74236981936899    2.71945052938151    0.92129243019620
H           1.65672459824673    2.78678093724434    0.54160977837384
O           0.29047606012251   -2.00286735939846    1.38780081445612
H           0.66088264777722   -1.07972214621553    1.36287379477201
H           0.79710834506058   -2.47274561370727    2.05209812302727
O           0.55162567536525   -1.57138125122559   -1.39022821857582
H           0.50333122296049   -2.01723442133964   -0.53523550933837
H           0.76302160860939   -0.64544602109372   -1.18656420565639
O          -1.46095722465263   -0.09687985783800   -2.37217913543086
H          -0.83751050907022    0.59711476281561   -2.07220578501858
H          -0.91697902877956   -0.90786618701239   -2.30708112443313
O          -2.36112354745143   -2.18965064420222    1.06640047409489
H          -1.38290216235474   -2.16831766880934    1.16602514048759
H          -2.72369797985102   -2.06949528364501    1.94648432691422
O          -2.77808210492915   -0.03682335112631   -0.25399085548933
H          -2.71707467797572   -0.95580128132265    0.18481504714379
H          -2.08585897595677    0.52406619197448    0.30359449208942
H          -2.32966329243600   -0.09933440237864   -1.21799859581186
N           3.00500494894013    2.16802566591549   -0.25011829648360
H           2.97803602579407    1.30633208590331    0.28560611949162
H           3.96853372181479    2.45148161452981   -0.37696688179472
H           2.59946851758694    1.96543361063296   -1.15601539678962
