    26
        -50.45986810  Gyration_radius:  2.50818766457 Dipole_moment: 4.019
 S           0.34225082416458    1.45377702168703    0.70358396210518
O           1.77752851759564    1.27713187044536    0.91616556366508
O           0.00881723330730    1.62920805242889   -0.68819842462886
O          -0.41582045995163    0.40917789018630    1.37271094833391
O          -0.07011254298378    2.79907991658722    1.43651256509965
H           0.06844001346531    3.48428457634152    0.78894243871021
O           1.72384418528362   -1.92162003034617   -1.18347711296815
H           1.66740368228055   -1.69586870790499    0.23429354274529
H           2.22577171469075   -1.13029309124794   -1.48483837094773
O          -3.11027465972259   -1.30870044306705   -0.63384019747064
H          -3.14056297271260   -0.53198921811970   -0.03734970004433
H          -3.71677854039382   -1.11721689301944   -1.35121857120268
O           2.52506346358093    0.59587716888847   -1.58981199662609
H           2.41159592169142    0.94011859030536   -0.68623569529352
H           1.77476861769380    0.95158223655044   -2.07589339826377
O          -2.99670742921631    0.86157990820212    0.98631844318004
H          -3.38783673499349    0.81716080192512    1.86072002402076
H          -2.03140570675966    0.76183897193640    1.11747147171560
O          -0.61289825575169   -0.85022696809950   -1.63183068452305
H          -1.47530004605576   -1.12733112695447   -1.26496005749418
H          -0.48237388611595    0.07094871944139   -1.35021345096671
H           0.79240752083057   -1.70783380713827   -1.45199948872497
N           1.57239392903932   -1.30615712281673    1.28272428718963
H           0.58056027677992   -1.06691669511855    1.45754827564638
H           2.01260334270083   -0.35964283900054    1.28734001376087
H           1.95662201154777   -1.92796876209963    1.98553560300047
