    26
        -50.46302224  Gyration_radius:  2.50645955143 Dipole_moment: 2.710
 S           1.79161376102415    0.69533309313097    0.71289972461729
O           2.07096220226858    0.25764917452279   -0.64202852029464
O           0.63677640767492    1.58995998812811    0.76679561886022
O           1.71532556703748   -0.36995615910812    1.68559680051485
O           3.04107633142534    1.58543015477768    1.13023866711698
H           2.96207246083395    1.62449723865099    2.07783498521113
O           0.12775094116917   -2.39847776952406    1.30001863975443
H           0.51197633536745   -3.13415294096420    1.77973476365058
H           0.71483376642234   -1.62252848122462    1.48023457617951
O           0.20177870290391   -1.58709133042291   -1.35252211046195
H           0.04827390976819   -2.05802539754727   -0.52009086193953
H           0.97887592469098   -1.02764081219764   -1.18258386430549
O          -1.55169044270225    0.30140165052514   -2.04017533671785
H          -0.47474800343618    1.27748713802012   -2.04254614362496
H          -1.03262871168190   -0.52566731716772   -1.91059003706716
O          -2.41815384993079   -1.49880616273462    1.68594159045678
H          -1.50815503205326   -1.84557523197036    1.62209275202019
H          -2.96188310090046   -2.05727348087136    1.12767693835204
O          -2.03082260579346    0.90900613587339    0.47014867784794
H          -1.92388347094367    0.51036308712904   -1.14320694896736
H          -2.25314139164049    0.12157698808228    1.00380574021249
H          -1.14597860019652    1.18426375297853    0.75572829681512
N           0.41167343805531    1.91039972181403   -1.79870919828584
H           0.49180830485496    2.74695414772083   -2.36484518166374
H           1.25123056518472    1.30713462827480   -1.83146091327694
H           0.34505662059399    2.10373817414387   -0.76998865500289
