    26
        -50.45494469  Gyration_radius:  2.49507618615 Dipole_moment: 3.127
 S           0.32028562713201    1.27351576255909    0.48473009290900
O           0.76872105810139    0.07288847021565    1.18712955382105
O           1.03233544458331    1.46162627044992   -0.76701817197788
O          -1.12833205485594    1.22975054554711    0.27929940703359
O           0.58495661707714    2.49828666643702    1.40455312336239
H           1.56946009672900    2.45781414959682    1.49702901368860
O          -0.72648743659668   -2.00355883829528    1.03325902143714
H          -0.15148272253050   -1.18723715532513    1.10925888509885
H          -0.32937355824389   -2.65660678312058    1.61120515405623
O           1.35355408263272   -0.67616159639045   -2.20841781770229
H           1.44954874060876   -0.34091260187875   -3.10170550453973
H           1.27908606122380    0.12313621070775   -1.62832077045925
O          -0.84998178420281   -1.97362049367022   -1.65349144914120
H           0.01651247378256   -1.56817391397577   -1.92439702081583
H          -0.75204371627737   -2.19123832106597   -0.70287667691652
O          -3.12562831092384   -0.70091226272726    1.01705887130194
H          -2.38717170631511   -1.32310847246045    1.15971669966083
H          -2.77911409439787    0.15762821904086    1.29179491983394
O          -2.44225683741170   -0.10148838699192   -1.36129603457097
H          -1.77349414581705   -0.93614091142583   -1.59950086745988
H          -2.97630885144541   -0.43418602983481   -0.55792581915217
H          -1.84385301608811    0.58066856759399   -0.86684597574994
N           3.07435696573851    1.74894088779074    1.19417977568997
H           3.03450513498880    1.82687751359957    0.18419210006091
H           2.74606201550809    0.81631461728385    1.42296266051476
H           4.03614390689511    1.84589789656011    1.49542684006646
