    26
        -50.45494469  Gyration_radius:  2.4949834949 Dipole_moment: 3.127
 S           0.62477236059920    1.19540772188734    0.37500812187235
O           1.77979525643155    0.37555034083928    0.69605319746576
O           0.17742978547215    0.98467448356986   -1.00032212858210
O          -0.47810730196336    0.96228096524973    1.30864810478100
O           1.01007705386599    2.69301220518588    0.53316654586123
H           1.74794817191859    2.77001307389579   -0.12180451112451
O           1.67232375576945   -2.08627270656140   -0.12709312194469
H           1.73271544909043   -1.13257764891698    0.13344329458204
H           2.25283552645802   -2.55685377773080    0.47387543821510
O          -1.87752249932524   -0.50586470059049   -1.35285723518532
H          -2.07482396491178   -0.46418813400994   -2.28964380733080
H          -1.08585805417212    0.09180945692303   -1.21456008035006
O          -0.89295548589672   -2.55841007791759    0.07946740437156
H          -1.28829451602488   -1.96218026975530   -0.59051861919265
H           0.09083523261944   -2.48000986710396   -0.04183171566354
O          -3.22919762414233    0.23449041587195    0.90053305542111
H          -2.68201245413356    1.00449686476105    1.10138550024435
H          -2.96534108821568   -0.02820902464512   -0.00173320056197
O          -1.46877109551209   -1.19252868529997    2.06136813266472
H          -1.20212400759002   -1.88592894471193    1.25576138729746
H          -0.88390235362651   -0.35756364922509    1.89248183099885
H          -2.36479679551914   -0.80341075037211    1.76637795614736
N           2.76741202374714    2.13384653152488   -1.31139463841021
H           3.17236594439626    1.40498885282194   -0.73478339273018
H           3.46373019115310    2.45884402991364   -1.97072268166138
H           2.00146649950755    1.70458332438698   -1.82030484717936
