    26
        -50.46302215  Gyration_radius:  2.50639281352 Dipole_moment: 2.706
 S          -1.37852395792805    0.35020306407733   -1.47587651811486
O          -1.72969133341078    0.72113580073266   -0.10618675352616
O          -0.17148439986414    1.02015808093953   -1.92267067011100
O          -1.38519426666930   -1.07931933083900   -1.68373986268644
O          -2.54237488390047    0.93436030379404   -2.38791012685855
H          -3.24189619991409    0.30098964713025   -2.26437762626278
O           0.56641483359299   -2.55321501822135   -0.78766400608421
H           0.60186573293731   -3.32486532387016   -1.35536079676445
H          -0.19929738385776   -2.01567501918266   -1.11005656285993
O           0.28768493859241   -2.67462930177585    1.92299163638959
H           0.34957132240463   -2.69952721304378    0.94934975071596
H           1.17907856341822   -2.79309436388106    2.25546899440428
O           1.65053154343683    1.30425922143071    1.49471382103641
H           1.96978545062897    0.73330018731287    0.75826219164956
H           0.77746898338241    2.20222928490313    0.75757134954874
O           1.96334717441754   -0.15675404931089   -0.71466650179009
H           1.69415307463742   -1.08652614764369   -0.67769986267978
H           1.30099261827986    0.27188976032982   -1.28325855094790
O          -0.46374245926117   -0.07276909733628    2.22489680268617
H           0.94621904937716    0.76743791030149    1.94483939594770
H          -1.05199451859051    0.09747683672069    1.47305527734927
H          -0.29524702246914   -1.03500323423940    2.22246157151799
N          -0.01101563137080    2.65377544046192    0.10918078869255
H           0.20919864768379    2.41360875049755   -0.87244349832828
H          -0.15447369621010    3.64527919679315    0.26115285619221
H          -0.87137617932422    2.07527464393936    0.26796691094710
