    26
        -50.45987748  Gyration_radius:  2.41924078343 Dipole_moment: 3.157
 S           0.32821849815814    0.97986909027928    0.25054416949329
O           1.32253897863881   -0.09200078149814    0.15202549857558
O          -0.88948053214007    0.58773645461663   -0.47600403760855
O           0.02968585449415    1.29494645489588    1.63800597001958
O           0.89486473499367    2.25068592576092   -0.39855299676010
H           0.83944380688884    2.18964488910221   -1.42428043442825
O           0.06772551086437   -2.35709306198422   -0.02330544491620
H           0.62098689726200   -1.53229551634885    0.03076889181532
H          -0.37097442684795   -2.31540001746964   -0.87900851120140
O           0.33413801456185   -0.68317291177276   -2.44050801426385
H           1.17269848820617   -0.77970095977572   -1.97728785367320
H          -0.25427765290481   -0.24237347178540   -1.79285804577049
O          -2.38844739742398    0.08586796282447    1.57181175697640
H          -1.98093921855490    0.27311191739357    0.68744677326722
H          -2.00267996577122    0.77028466372726    2.13356579513870
O           0.96404190613611   -0.73290345522622    2.91748939987942
H           0.66918529773935    0.14607082332165    2.55787731507691
H           1.68125499652589   -0.99527998316476    2.33093040412068
O          -1.09381991971947   -1.97976489267763    2.17935181785312
H          -0.72580189340043   -2.27787055078231    1.26150855880001
H          -0.25229801970113   -1.54474827032719    2.62833333766540
H          -1.73877374446197   -1.17028423001532    1.97454839027743
N           0.72772858215617    2.07563229877555   -2.97129093754662
H           0.59384155785844    1.07804583697493   -3.14447592991951
H           1.53836135853963    2.39809169899095   -3.48238615885329
H          -0.08722169211710    2.57290007620465   -3.30424972400612
