    26
        -50.47291485  Gyration_radius:  2.43841062105 Dipole_moment: 3.485
 S          -0.36568904086261    1.00349208230015    0.84200277348174
O          -0.99099231859611   -0.28658157368433    0.50249686757349
O           0.27494092580237    1.55575495662896   -0.36619688687835
O          -1.48765213124832    1.97410876499066    1.26280992122720
O           0.57294452769618    0.87304179130758    1.92420183960989
H           2.02639389567308   -0.06206121075181    1.84895220798255
O           2.57270958629219   -0.81231251923551    1.53175937057068
H           2.42645692188258   -0.52946148460914    0.00582226272382
H           1.98437943203763   -1.57851878540213    1.67426166564977
O           0.29701503702436   -2.28019874051244    1.73619789103605
H          -0.21258272989624   -1.52156160820592    1.37898342406189
H           0.03130945506753   -2.36197804530545    2.65329758800330
O          -1.45016258539304    2.02008277357403   -2.30986486460846
H          -1.45909059027971    2.96426979894001   -2.47536349017901
H          -0.74664473693999    1.86516207480148   -1.64142513064977
O           0.07194298025932   -2.07214022821066   -1.19917323308067
H           0.20204007753392   -2.78918136969068   -0.57041305424315
H          -0.48660716526708   -1.42595506307344   -0.72151546871051
O          -3.13567291994473    1.04882139454517   -0.46822192151660
H          -2.72948172918362    1.38769658779956   -1.29489499176812
H          -2.69464189031415    0.20614786314625   -0.29072156061150
H          -2.24648850978513    1.74544353064871    0.64871901982578
N           2.02343017973894   -0.29090968554252   -0.96183246326958
H           1.39839428849163    0.55195053947170   -0.81085327288674
H           1.38178369500992   -1.07767934659269   -1.24588301653786
H           2.74196533521354   -0.10743250734625   -1.65314546678906
