    26
        -50.46342182  Gyration_radius:  2.49399688691 Dipole_moment: 5.628
 S          -0.89512858680088    1.85750072150800   -0.06399716480259
O           0.54826124219198    2.08501795975588   -0.02555838833017
O          -1.34161255811652    1.23423337642934   -1.28927035433367
O          -1.34867255722039    1.16214764720233    1.12719824782052
O          -1.54897993618910    3.29909553892833   -0.04051765050999
H          -2.41414539987300    3.11726437150404   -0.39173454357856
O          -0.26206313078661   -0.74457900700085    2.45148451261180
H          -0.51161761323098   -0.60743254752405    3.36690137376550
H          -0.72650681573120   -0.02185493625803    1.94021368599117
O           1.69147720475756   -1.22319455582398   -1.38845288908606
H           1.84642102138225   -0.62374451783460   -0.06833241521683
H           1.71723485380192   -0.42277554528465   -1.96093602856237
O           1.20094316352080    1.16808059797173   -2.48084685593586
H           1.08033293984036    1.66126742340802   -1.65055250899290
H           0.30216029786752    1.02790206627240   -2.79696496442384
O          -1.61883633353438   -2.68453971009905    1.02152810015574
H          -1.16432955521603   -2.04930527558253    1.60183529761726
H          -1.10980657677858   -3.49662438774868    1.03945022346670
O          -0.91390231917414   -1.43960109817787   -1.33142964050151
H          -1.33706155171748   -1.85746898194130   -0.56091945132742
H          -1.18837557388394   -0.50512779198322   -1.33408224310209
H           0.73212593434968   -1.48110688662717   -1.41300950956866
N           1.84452897003330   -0.02098437215309    0.86460776450150
H           2.78384192446360    0.12305870950951    1.21769232583957
H           1.23280675376699   -0.45349221850583    1.57619825099587
H           1.40090419242340    0.89626344013627    0.58949481551402
