    26
        -50.45593709  Gyration_radius:  2.49621746092 Dipole_moment: 3.356
 S           0.14760421839757    1.31563583103657   -0.45829588338114
O           0.61734779639135    1.53343368059558    0.89630432114813
O           0.78393787904242    0.12393638826302   -1.03776647141995
O          -1.30593172170336    1.21381065488360   -0.53433431317476
O           0.54641203921335    2.52597751143467   -1.34214395242453
H           1.52032768888571    2.61129067751696   -1.16111535977634
O           1.23332024159993   -1.87262393523056    0.62482335176723
H           2.13358300772234   -1.89405657017981    0.95072183418480
H           1.16715488409013   -1.08775252006204    0.03237514733552
O          -0.50977847554144   -2.07640476348311   -1.70627984047005
H          -0.16064834263131   -2.61362314674188   -0.98552408778883
H           0.02549153269225   -1.25006722064367   -1.67844027526590
O          -0.58016741093162   -0.50607035149395    2.14836744387452
H          -0.24383699456539    0.34565852410095    1.80674337712840
H           0.03692799040675   -1.17203957772912    1.79705638322898
O          -2.94974191779732   -1.25209281609487    1.40173163767573
H          -2.04606967952075   -0.98462168466678    1.74569809676479
H          -3.56967779038173   -0.62673335555227    1.78155033886289
O          -2.60652893018944   -0.82317544203100   -1.05355092524161
H          -1.85182039284063   -1.45173808877344   -1.37658773773161
H          -2.83191881806172   -1.08090865506004   -0.06726143195224
H          -2.11034463881115    0.09486299643890   -0.93156203434044
N           2.97721842039570    2.32878346773954   -0.39533436647255
H           3.48800316619017    1.53788885955568   -0.76409094561809
H           2.44885952845101    2.02262741924854    0.41860940248304
H           3.64027673951167    3.03800212692900   -0.11169366940157
