    26
        -50.47291478  Gyration_radius:  2.43847730448 Dipole_moment: 3.486
 S          -0.86533183977309    1.04466650843309   -0.10677151343223
O          -1.42733072935458   -0.00130475003239    0.76796392652839
O           0.05614770901473    0.41617573186736   -1.06937053317975
O          -2.03032207445636    1.66361263671218   -0.90524765328943
O          -0.21721737213642    2.07813500501497    0.65553869538254
H           1.09174797860189    1.80576967127310    1.75390114130029
O          -2.81639941808669   -1.81002474677272   -0.56178435022174
H          -3.72637501238066   -1.75869772961294   -0.26480891004470
H          -2.30821811883868   -1.18541600567169    0.00156250812507
O           1.89164424643513    1.33205025879920    2.06643366019936
H           1.26239327224563   -0.09254047119167    2.13516714894002
H           2.44325896577353    1.29352978059801    1.26159681088972
O           1.68692269272206   -1.63390681236963   -0.47695101420594
H           1.01280700889783   -1.02778349369990   -0.84550644522185
H           2.52377175663140   -1.18208200349246   -0.62459959090744
O           2.56841798472884    1.18194598706779   -0.55940510620421
H           2.75208830613296    2.05537849604681   -0.90834396867875
H           1.63008731844613    0.99964586238830   -0.78083135123251
O          -2.06794358921853   -0.25131881457174   -2.60849671322516
H          -2.42594897072480   -0.97606090158748   -2.05202772677777
H          -2.19234354984889    1.00512098420010   -1.64357991850684
H          -1.11126389452136   -0.26382587290697   -2.46445381449975
N           0.70979661501851   -0.98482870119630    1.90268422659721
H           1.17332350597413   -1.44402844677006    1.07467875711934
H          -0.23603447733246   -0.65272455648122    1.55778681931855
H           0.62232168604882   -1.61148760603164    2.69486493521660
