    26
        -50.46342169  Gyration_radius:  2.49380401461 Dipole_moment: 5.631
 S          -1.51934266476194   -1.36104153745469    0.30764512847890
O          -1.79677836051354   -0.69661972447771   -0.96446398776349
O          -0.33729124946846   -2.19185428199595    0.27136342862180
O          -1.51458426639000   -0.41120155383263    1.40583752209048
O          -2.73948331038954   -2.34162297030370    0.54431417771574
H          -2.36861315448823   -2.95394814467495    1.17070908595170
O          -0.61135526141150    1.98485052043318    1.52274067961981
H          -0.94698747652149    1.04320981658521    1.51883794556074
H          -1.18819846680221    2.45656805727993    2.12590853804033
O           1.68951091466206    0.42379294915412   -1.80299173038116
H           0.49093151491568    1.18430629179810   -1.46921128606231
H           1.29646986401304   -0.34588437807765   -2.27425930687957
O           1.84554413466889    1.14786812055139    2.47796839756396
H           2.51001825446797    1.79456956585752    2.23473401718675
H           0.98306082518878    1.50851947812544    2.20803030431956
O           0.22115314194914   -1.71893786329174   -2.44016260549463
H           0.54185724370725   -2.34546647472654   -1.78286866415662
H          -0.62255000102841   -1.40596520858582   -2.06955917344711
O           1.95655830136388   -0.77206941160804    0.50697547895090
H           1.16900076686903   -1.34486474622455    0.52395439596518
H           1.96385961764590    0.03212142390827   -0.93182388191346
H           1.93662228606263   -0.23778524590050    1.32030827023352
N          -0.50488936274044    1.58205366165370   -1.17988261836770
H          -1.13033266471798    0.73296012779169   -1.13833821405351
H          -0.84996796254469    2.25265253924819   -1.85733051486109
H          -0.47421265384114    1.98378898867009   -0.22843539692079
