    26
        -50.47291483  Gyration_radius:  2.43840814803 Dipole_moment: 3.486
 S           0.01274152762960    1.34510132995485    0.20621976564592
O           0.88142536484564    0.99174438051266   -0.93203736959948
O          -0.05200454246389    0.19915042531931    1.12983304864998
O           0.67671828230589    2.51751680133435    0.95632323867774
O          -1.29547844007579    1.74999175720433   -0.23406503515009
H          -2.35389091327466    0.76471076596480   -1.18373594842259
O          -2.51758779852119   -0.83898213621738    1.12313564557074
H          -1.65453407647092   -0.37534088756677    1.17707159897955
H          -3.12005076543470   -0.32911898554435    1.66668050906976
O           3.35829707286315    0.44878332177593   -0.19768012878492
H           2.45741260637495    0.62500545598723   -0.54852738832022
H           3.93330096117879    1.10558763134900   -0.59373759150856
O          -2.72423793064410   -0.09372280242219   -1.48025400340491
H          -1.37921037571823   -0.74486919308068   -1.92461201515976
H          -2.92125114215732   -0.54264373935145   -0.63579963737228
O          -0.11776423885405   -2.36895080312374    0.34433517506226
H          -0.98886971312672   -2.58853247282090    0.68997521743110
H           0.09005115805350   -1.49816282027755    0.73942301856774
O           2.30422989017988    0.98239559712669    2.20701888232832
H           1.38271678222520    2.07648215008835    1.51490133046117
H           1.56769906917874    0.35522742225608    2.19028935865616
H           2.89426832196590    0.71279783287848    1.47061467902519
N          -0.35467002132513   -1.06870278772500   -1.95604722852418
H          -0.08203662943928   -1.42500441403412   -2.86523357011857
H          -0.21762540836698   -1.77735505922050   -1.18764889694880
H           0.22035096905281   -0.22310879037859   -1.67644264480537
