    26
        -50.45593693  Gyration_radius:  2.49648156448 Dipole_moment: 3.351
 S           0.33944590968093    1.05776774547835    0.85206061090048
O           1.41140632960713    0.15807017224899    1.23215183918163
O           0.22527859187781    1.13222593995378   -0.61161303690224
O          -0.93802416685919    0.68729276761536    1.45189548534295
O           0.66188004991515    2.48657151235797    1.36160549984088
H           1.58239102237936    2.63447545298054    1.01635544292442
O           0.32085557634171   -2.18975226296762    0.55379271532140
H           0.72116395014381   -1.40372910416949    0.97461764132533
H           0.46281982734163   -2.05642291325664   -0.40006721282560
O           0.70670170714441   -1.10238835494158   -1.92521106671742
H           0.63701840883088   -0.24568336480956   -1.44280151550741
H           1.59662303287613   -1.14702655299217   -2.27613559541781
O          -1.86091042405024    0.28340884734794   -1.98568673047394
H          -1.13668786884038    0.80141338969555   -1.56456162018744
H          -1.41827174417192   -0.48592819383509   -2.36282280133853
O          -2.22903785019709   -2.55524885750470    0.86017207677931
H          -2.37362693837948   -2.73403893193742    1.79123958108212
H          -1.23545858159914   -2.47358466953178    0.74842040890080
O          -2.91053509741293   -0.20864830817853    0.26123576440542
H          -2.73736543679188   -1.21579304277728    0.47501181645732
H          -2.14708285017028    0.26458015805672    0.80580362677355
H          -2.62946180568126   -0.04384832221994   -0.72008238393074
N           3.05189176073893    2.24518144224910    0.32493458155574
H           3.06088127662905    2.30575238824870   -0.68438628939634
H           2.87955127674084    1.27811109952207    0.59040836219880
H           3.95855401391125    2.52724197340939    0.67366277971180
