    26
        -50.47050262  Gyration_radius:  2.38422149198 Dipole_moment: 5.663
 S          -0.62622419788021    0.56989568961870    1.30614596132896
O           0.11471567552163    1.52136729242151    0.47455783771598
O          -1.09302399915898   -0.54379355159810    0.43852798738731
O           0.12452606983545    0.09020463576409    2.42581192943817
O          -1.89825154388517    1.28948511886010    1.82566854341842
H          -2.43773148592176    1.41773440367369    1.01451005251286
O          -0.63660961787772    1.89555406412391   -1.97715235754323
H          -0.33560031426880    1.83736504653526   -1.03121980339192
H          -0.38315275496834    2.76785976538968   -2.28178560818613
O           0.23974070012654   -2.85270723851717    0.78273648183947
H          -0.05311923915005   -3.35966261732322    1.54177568245881
H          -0.32617229279278   -2.05742692590444    0.75699301055817
O           2.43792362171030    0.43446738761960   -0.34264854166800
H           1.82117069352367    1.07607284193864    0.05548742313427
H           1.42654400033773   -0.22604619693942   -1.21192642593217
O          -2.92451509702857    1.11000896903973   -0.58936815047816
H          -2.35607842632376    1.53625209828134   -1.24987239162959
H          -2.52473026254488    0.24165287793618   -0.42753896719785
O           2.31978451746074   -1.26294006449818    1.63553787454538
H           1.80970985670401   -2.01757650793937    1.29366321503108
H           2.61070643242046   -0.21856031629247    0.38892024633459
H           1.66537446353431   -0.74110831888360    2.13563949656748
N           0.48892193293482   -0.57370937015311   -1.67186883849555
H          -0.17883111501205   -0.68039345292500   -0.86026348019789
H           0.59464126079930   -1.44534478422261   -2.17932802664161
H           0.12028111190461    0.19134916399493   -2.25300315090509
