    26
        -50.46258609  Gyration_radius:  2.40946351977 Dipole_moment: 2.829
 S           1.17142007926107    0.02559501269914    1.32834679031763
O           1.76073012332770   -0.53360626049940    0.12719902743959
O           0.73634825819295    1.39798625552166    1.15609476232360
O           0.12199190400196   -0.81931962958725    1.88213658563169
O           2.32886513433018    0.06158163809341    2.40635663295607
H           1.89077086746784    0.52789210513002    3.10920038446113
O          -1.10974264766462   -2.71184582399146    0.48424609553387
H          -0.79915581007994   -3.58884384818461    0.71269323485157
H          -0.60172760890487   -2.08362353282090    1.04437649115914
O           0.02836870704424   -1.51961105691159   -1.64710453118547
H          -0.55956804135533   -2.03086459912960   -1.05785383271584
H           0.78246093200907   -1.26764061147815   -1.07608146602793
O          -0.63005315139133    0.85403368016368   -2.24512080377839
H          -0.47621888819983   -0.15122985518509   -2.10207407116846
H           0.36324186743810    1.27274022187549   -2.07112217977959
O          -2.51690213545856   -0.32341119679042    1.43202680235175
H          -1.62047248283645   -0.42107369752490    1.79976111932479
H          -2.69919856661586   -1.16286231273937    0.99857618070303
O          -1.59013701326041    1.66243307989143   -0.08035506348992
H          -1.15415732209368    1.19599411401053   -1.40454053264910
H          -2.13912075270513    1.01323334357276    0.41275229293210
H          -0.74990563774204    1.70299924764790    0.42663364372425
N           1.64539614111795    1.67823858090940   -1.55171810683641
H           2.40274758159923    1.86864175079657   -2.19461284485664
H           1.89383592509428    0.88151682491243   -0.95624762667257
H           1.52018252742553    2.47104656962183   -0.93356898454664
