    26
        -50.46258601  Gyration_radius:  2.40943624618 Dipole_moment: 2.832
 S          -0.03737466125775    1.60828904669589    0.74032875822732
O           1.13714096264076    0.86975230590309    1.16240126063984
O          -0.07904605407587    1.83081007162783   -0.69186911974749
O          -1.27440206674218    1.02628254069219    1.24316173444701
O           0.08441019764994    3.03860231135702    1.40536522826507
H          -0.65480983405781    3.47714475311606    0.99977226965415
O           0.95648065913743   -1.78491477420466    0.96362294992917
H           0.07059345242453   -1.93331678159185    1.34758675586035
H           1.14997585034081   -0.84540290039334    1.15912351906269
O          -2.84206342942824   -0.58772894647753   -0.29022552661522
H          -2.77995366203380   -1.35593968342414    0.28578836509158
H          -2.44670474540143    0.14085303907387    0.22077138552285
O           1.15453340730912   -1.55661964634464   -1.55298800357106
H           1.05432610893177   -1.80172708725466   -0.56062267573341
H           1.80972156720140   -0.68349075801738   -1.51655385460627
O          -1.45075843073648   -1.46994081583179    2.13235223388723
H          -1.38444678436813   -0.51759369518836    1.89754203244505
H          -1.48057291774199   -1.51047965007548    3.08903377405794
O          -0.91262372878869   -0.25445521917037   -2.09507868115297
H          -0.63686162266342    0.59891767757309   -1.69464131570788
H           0.24483410766531   -1.12639476229336   -1.84461525449931
H          -1.72157025959991   -0.50557821968963   -1.59655872055064
N           2.44036302219016    0.58975470548310   -1.27605829634726
H           2.13010912010157    0.80265663979037   -0.32240670508715
H           2.02072926358600    1.28888378135469   -1.87732163111935
H           3.44797050772756    0.66163606728687   -1.32791048236993
