    26
        -50.46258605  Gyration_radius:  2.40944606468 Dipole_moment: 2.830
 S          -1.00469250517368   -1.17317353954752   -0.86636836970630
O           0.18970791797276   -1.89095342147199   -0.46542835980354
O          -1.72368917100195   -0.60400947679039    0.25708611373097
O          -0.73436050367089   -0.19491030427807   -1.91113031767102
O          -1.97311604662990   -2.24950294798280   -1.50395458329801
H          -1.39438330196667   -2.63470078023447   -2.15207726956928
O          -0.82836545372456    1.76156083970546    1.10587784734246
H          -1.31077109769325    0.94233905755822    0.87228902171989
H          -0.72108555898885    2.22895303693138    0.25488913303086
O           1.18321345766267    0.58510509433189    2.10331143877270
H           0.43803744061834    1.19419784978669    1.74510550925679
H           0.64249115995879   -0.33074948227787    2.34925343000120
O           1.68144236930681    1.03925274108568   -2.13805696720369
H           0.88814576229308    0.48324137447798   -2.23782193671250
H           1.34415643355557    1.93291947766431   -2.02251120942174
O          -0.81933837066018    2.42878609051384   -1.50491875380859
H          -0.87659280409228    1.46689541602889   -1.69930788805436
H          -1.61794037323384    2.82348977972162   -1.85732166167454
O           2.27696922888859   -0.34766898013816    0.05541025651486
H           1.60184433432583   -1.03045443365575   -0.15145545559373
H           2.27651085028090    0.23941811591610   -0.73281271102976
H           1.74449442126570    0.28312081792410    1.27109765228721
N          -0.15997571451112   -1.52878938067339    2.36048102929373
H           0.37711807493826   -2.29488267845502    1.97200635683367
H          -0.88551203094915   -1.30361242966108    1.67204000843372
H          -0.59430850878121   -1.82587183647254    3.22431768633765
