    26
        -50.46258591  Gyration_radius:  2.40946604894 Dipole_moment: 2.832
 S           1.05088965695938    0.26167041344149    1.40130336139285
O           1.67477811185583    0.97075704371308    0.30108484210498
O          -0.29890277910912    0.71706777891227    1.67283678422298
O           1.13159365718419   -1.18381175195885    1.24067496957612
O           1.89790679013881    0.61477555696110    2.69004184584025
H           2.76921491735070    0.38492889731283    2.38789746173201
O           1.20202350617111   -2.36698728795478   -1.21089027930250
H           0.39770387016856   -2.88130126517411   -1.09092534690022
H           1.39767024792399   -1.99956711700439   -0.33058111408268
O          -1.38630822283750    1.02208899977852   -1.78899987902867
H          -1.81770694079959    0.39229980458752   -1.10168636276873
H          -1.07998050300519    1.87062581727859   -1.17329981177886
O          -2.20524487032561   -0.37624198939028    0.15984391173611
H          -1.94519788914737   -1.31717691127407    0.19625741358098
H          -1.63937841427015    0.05675000692960    0.83118740809179
O          -0.97778850146454   -2.70942662667796    0.71550270151973
H          -1.27852255784002   -3.18802531875802    1.48897278142159
H          -0.20367039034790   -2.17606667082689    1.00320812762026
O           0.93129926577977    0.12963120858656   -2.09724047405568
H           1.32336005659691    0.50106122521500   -1.27687983265005
H           1.03499705193869   -0.84250521036536   -1.99646916771791
H          -0.46178640846128    0.59759282130574   -2.03930205890023
N          -0.50972756525236    2.76300637585327   -0.19591827331912
H          -0.45661863978148    2.16232707125253    0.63320015382307
H          -0.99598861722388    3.61883549138492    0.03691366678888
H           0.44538515780022    2.97769163687676   -0.45673282894918
