    26
        -50.46545171  Gyration_radius:  2.43025461617 Dipole_moment: 6.501
 S          -1.06180292035602   -1.13924807353890   -1.04305178376802
O           0.30969205032964   -1.65981772296216   -1.09915462345854
O          -1.75990699311070   -1.65878516807529    0.11758086123520
O          -1.09781624245320    0.29519509586594   -1.16252969652321
O          -1.80095211041962   -1.72328376992011   -2.31007578012594
H          -1.92994370440484   -2.63338339415943   -2.06558725416323
O          -0.76210113623579   -1.02140468972223    2.42662045441724
H          -1.15701240362022   -1.55358398676657    3.11879562207603
H          -1.18976540411316   -1.30716735864174    1.57761197490422
O           1.54916855854500    0.38260516969393   -2.34855755729595
H           0.81626893672199    0.91774642000903   -2.66238835692341
H           1.14115268552134   -0.43175738878709   -2.00262848674527
O          -1.91306171116241    1.34441633222842    1.33180995549712
H          -1.90923563607917    0.89639873659385    0.47391461947662
H          -1.59013224598446    0.69315192387893    1.96540521341910
O           2.21670452564850    1.51734959252961    0.00148267039945
H           1.85920082254391    0.27220468295217    0.69338367250378
H           2.22453813706608    1.20015174668396   -0.92771541237227
O          -0.11456261562967    2.72146210982481   -0.20621225591296
H          -0.69322699811061    2.64600382255016    0.56906353129498
H           1.42567563763706    2.11377012440723    0.03320519352570
H          -0.46400333215925    2.04524260640224   -0.80453876792810
N           1.56190417509625   -0.73920709360342    1.02931397050420
H           1.13147942329830   -1.20365528906826    0.18613504582921
H           0.83413621543024   -0.71505082650462    1.76262940252126
H           2.37360228600241   -1.25935359188148    1.34548776760089
