    26
        -50.46545174  Gyration_radius:  2.43026059787 Dipole_moment: 6.506
 S          -1.86208691494818   -0.01882045063520   -0.21510907822814
O          -1.36105231893386   -1.30942280682767   -0.70340194809837
O          -2.09132178130391   -0.06697722372304    1.21652495428292
O          -1.03365173854326    1.07738236451323   -0.64549874994087
O          -3.27526525301606    0.18266734179521   -0.88961002540889
H          -3.81742596528713   -0.43262625818769   -0.40797073695948
O           0.26547352198114    2.12093530001793    1.63757902598136
H           0.34826049362511    1.35492095309566    2.21745438664553
H          -0.40936976524024    1.88212937062323    0.98624127474878
O           2.34354783585273   -0.35690551250878   -1.26387823073364
H           1.72144278728969   -0.49302181630500   -2.01121991437106
H           1.65052496604906   -1.11462881889974   -0.21377904111690
O           0.13055061803856   -0.48831071221909   -2.79398272439896
H          -0.13273202352796    0.42937674834294   -2.89693681283014
H          -0.48011386282241   -0.85630883192916   -2.12996544360855
O          -0.00376674773777   -0.51299023070344    2.69150731639906
H          -0.84189647467002   -0.34661946476911    2.18622031226601
H          -0.26794822989110   -0.71941325472207    3.58920167185414
O           1.55267244704558    2.10619406800206   -0.77883894398812
H           0.63241134230190    1.90520541218117   -1.00277308043421
H           1.49985298146568    2.35164255127063    0.15846280028709
H           2.24121265049073    0.60620941537236   -1.05334329534250
N           0.97979455084794   -1.70007016881376    0.44307939188023
H           0.87793580618679   -1.27859945719170    1.38121012696962
H           1.30258027058992   -2.65937546910654    0.51301380526512
H           0.03037079418282   -1.66257304868921   -0.01418704113243
