    26
        -50.46545056  Gyration_radius:  2.43042416636 Dipole_moment: 6.495
 S          -0.79712455024796    1.30708816552665    1.08207845511907
O          -1.86697539852476    0.40427072936930    0.64043375746072
O          -0.15906962431665    0.79811711757181    2.28132562015368
O           0.11560322836640    1.62090358413452    0.01347066636844
O          -1.50635502982223    2.65701312884686    1.49121138572482
H          -1.89707400825287    2.43195496847859    2.32866074003848
O           1.02717282950859   -1.49843590549435    2.04946994215050
H           0.58720386171370   -0.62279941334031    2.20742956347735
H           1.24957933655334   -1.84708283908120    2.91391155198530
O          -0.10424917680844   -1.20033664432810   -2.40281261669599
H          -0.82758222677133   -0.54427275492718   -2.50525881755457
H          -0.37882359034328   -1.67191662479700   -1.03911372127273
O           2.59229703819104    0.39797933099048    0.60868148284735
H           1.82141845249196    0.98288156885885    0.62810686178181
H           2.33986537920172   -0.38010312527681    1.11930476075831
O          -1.80888485987323    0.84927235175434   -2.01810681700390
H          -1.95883331510857    0.73287905805009   -1.06244990848755
H          -1.25325469276126    1.62884928844332   -2.09294246778139
O           1.76352588470018    0.60850388962019   -1.99264322990320
H           1.16028770389405    1.18935616807302   -1.50672742919752
H           2.42971480067809    0.37953669983569   -1.32533581041921
H           0.71117938079087   -0.63833169180819   -2.36491696977359
N          -0.72133916332017   -1.87883948508656   -0.00768199182402
H          -1.27517642482617   -1.03003914953965    0.28356535714242
H           0.06288131395378   -1.96863146652456    0.65930622211477
H          -1.30598717912355   -2.70781696923831    0.01103341280291
