    26
        -50.46545158  Gyration_radius:  2.43012808014 Dipole_moment: 6.503
 S           1.10820687005197   -0.05882024414444    1.51018615270446
O          -0.01895260147058   -0.19935947951517    2.41241516641545
O           1.33307108993268   -1.30266951782504    0.76364512985474
O           1.02998986084725    1.08474566222978    0.63876706923991
O           2.38573706456828    0.14202263388065    2.41582804553449
H           2.25775635781684   -0.51430739521909    3.09212388344986
O           2.38110103895412   -0.31363594742157   -1.51482234551799
H           2.56524084476637    0.60060590055241   -1.28585620494224
H           2.11970856020381   -0.73870101431419   -0.67793814180907
O          -1.63701979267325    2.01854715601596    0.69003207394534
H          -2.15143632466556    1.22169685386192    0.86399065426319
H          -0.72835623674181    1.80173237413178    0.94313158645511
O          -2.31506152880582   -0.68029844564694    1.30313347239955
H          -1.46807211610619   -0.50621935511141    1.79070759788492
H          -2.95503296529579   -0.94890166498481    1.96388170406786
O          -0.04633884172085   -0.20867510224311   -2.67733172480224
H           0.91536224522432   -0.31803060598438   -2.51176730433744
H          -0.58756286682741   -1.04867746380457   -1.60127415786735
O          -0.17202967105548    2.19645324199806   -1.61626277022015
H           0.48478515969275    1.98327567863601   -0.93761451577500
H          -0.21534356802510    0.73659318734710   -2.43150664812773
H          -0.97041616929574    2.38017248174509   -1.09628641840973
N          -0.80415641470787   -1.69309839443151   -0.72825220707178
H          -0.98691339766588   -2.64490411329158   -1.02827899268132
H          -1.58497595107014   -1.33386415131743   -0.15456833901481
H           0.06070934406335   -1.65568225513605   -0.12608274563488
