    26
        -50.46342168  Gyration_radius:  2.49364318184 Dipole_moment: 5.606
 S           0.63357042734030    1.96182339413423    0.04959294257477
O           0.68041667811237    1.46583924348178    1.42391613818683
O           1.60308513749017    1.33175001913206   -0.81754979272189
O          -0.71818601538726    1.91652744452516   -0.47806763779630
O           1.04999263073513    3.48677195224949    0.13831728866534
H           1.33633975923369    3.65427765576937   -0.75319988417461
O          -2.56556064122162    0.16499831870860   -0.17731502329140
H          -3.39354756718208    0.64813514042710   -0.18658351760162
H          -1.85738933370090    0.85182304186739   -0.33847648654067
O           2.73185098453687   -0.27550898391879    1.19086086146320
H           2.09581723498139    0.41769117001245    1.44016297532928
H           2.98208922492763   -0.04379626233619    0.29024692137327
O          -1.82634582182586   -1.18002084501837   -2.47914675871190
H          -2.08866059170217   -2.09868761610956   -2.40067456784580
H          -2.17572446721171   -0.71522294993552   -1.69900725483825
O           0.95106251064936   -2.21025859741805    0.70238047530519
H          -0.11364546175125   -1.42949650165963    1.32249276506890
H           1.74552099681651   -1.71062752711685    0.99939944200783
O           0.80433285030619   -1.11279449939275   -1.66695185253705
H          -0.06192702666457   -1.04827925032697   -2.10597279324933
H           1.09805426201285   -0.20275808477407   -1.48253338047457
H           0.88446738526389   -1.96701647106129   -0.25871639556055
N          -0.81041412431024   -0.67461605010424    1.74414980457034
H          -0.26656417942301    0.22982865221205    1.72826041717880
H          -1.09041281511036   -0.91186301382806    2.68914634709441
H          -1.62822202690213   -0.54851939952702    1.12526897652725
