    26
        -50.46342099  Gyration_radius:  2.49448048111 Dipole_moment: 5.664
 S           0.22361560701211   -0.88518672623883    1.85100125385198
O           0.68827643458068   -1.89867927134260    0.93138319062580
O           1.05677244213633    0.31571868099679    1.85388267761899
O          -1.17821189281223   -0.55212446416495    1.67059084854202
O           0.37249813812915   -1.50246878270165    3.30103233480848
H           0.07600055238297   -2.39471047893347    3.15653432012349
O           1.54361322477639    0.69600342577364   -1.85305249052514
H           2.27657287753140    0.34820300498537   -1.29536932100165
H           0.83219827968319    1.52509204257153   -0.88794183772094
O           2.95551933583099   -0.46569652670534    0.09869545003165
H           2.65832079982862   -1.37637804919129    0.00056462054457
H           2.43225177084142   -0.13041972396198    0.84770468808703
O          -2.60672776968672   -0.60823912799391   -1.92282467329927
H          -2.57630572829142    0.05215383110449   -1.20873240421892
H          -2.64128462575104   -0.12665303674861   -2.75092474968717
O          -2.27278328929130    1.19458277015355    0.14709436535058
H          -3.05777807998397    1.49352001484377    0.60918099603056
H          -1.87860078120586    0.48387576650707    0.72931803195093
O           0.01204877675035   -1.41324004556039   -1.64512213364188
H           0.95163789742173   -0.09531695193776   -1.95773826220123
H           0.19575591777026   -1.69647879446045   -0.73146509229815
H          -0.95255752162362   -1.30695334981399   -1.71976541225877
N           0.33289459785689    2.00884548737796   -0.02151207051559
H           0.62159298476591    2.97491292672937    0.08386715738146
H           0.62866637275472    1.43442616369183    0.81296830344115
H          -0.69398633136619    1.92521123507223   -0.09936979104109
