    26
        -50.46583681  Gyration_radius:  2.48728567421 Dipole_moment: 6.445
 S          -1.30231004026553    0.96223723310516   -1.17048219855261
O          -1.62014207622819   -0.43210321116878   -0.83077037151802
O          -2.07136593972587    1.89277092657322   -0.37452916036456
O           0.11925033503675    1.19742793791171   -1.17446038342380
O          -1.79755924478090    1.15748912271906   -2.66844022002818
H          -2.70563873544363    1.41995417934510   -2.56010276637084
O          -0.95381126512757    2.16821841195299    1.97235608003318
H          -1.30667311247258    2.11545456288215    1.05293089628310
H          -1.70435698945162    2.40650656768040    2.51980532599474
O           0.73334678167208    0.23186174724736    2.55478308421887
H           0.12076152301102    0.97474679237990    2.32836590770487
H           1.13030697922358    0.45467321355372    3.39785490583146
O           0.28164969681190   -1.10620367336010   -2.63435815827969
H          -0.54597628751244   -1.05541500859749   -2.13073320912224
H           0.58185534710785   -0.19032394583787   -2.66079976999818
O           1.89620996470206   -2.05562992271782   -0.71008977910821
H           1.43622279237655   -1.86251777822709   -1.55794169253797
H           0.75392427720860   -2.00870107723185    0.23848307964754
O           2.32300950665776    0.40602443697076    0.18570785821789
H           1.96147180998346    0.42198962166699    1.08222892725475
H           2.30791658076642   -1.19777332389230   -0.44749602341099
H           1.63879783001514    0.82579737529144   -0.36463175364916
N          -0.11772131174766   -1.76410974900650    0.86383189547661
H          -0.56546651612276   -2.59549680940770    1.23206660636872
H          -0.78147640506960   -1.23224805138264    0.23399321257249
H           0.18777448910100   -1.13462956856860    1.62242769657221
