    26
        -50.46583683  Gyration_radius:  2.48732244338 Dipole_moment: 6.444
 S           0.21909386323228    1.29167543897434    1.50917810082741
O           0.88453374836420    0.63975283203901    2.61501854118094
O           1.11718700850498    1.45417529009216    0.35673379495877
O          -1.03799002389864    0.70206929528530    1.12426087588391
O          -0.10608999224967    2.76688361425791    2.00460869302424
H           0.60103003440357    2.94828519199327    2.61471857535540
O           0.93066931225828   -1.94171810757193    2.20600165725726
H           1.72271864168931   -2.19957368213636    2.68120972781261
H           0.82272898942016   -0.97731103038534    2.38127422031562
O          -1.17144686741856    0.43617567857339   -2.60102483401756
H           0.17759059097053    0.00600580746704   -2.15052256449900
H          -1.23524060212526    1.31707922242985   -2.16802228134031
O          -1.02137610958138    2.52091945899256   -0.91464761506404
H          -1.59872805925891    2.20291339097513   -0.21096410138224
H          -0.13168322397537    2.36897192854804   -0.55912120447012
O           0.44574500485321   -2.61470907025695   -0.29370072023636
H           0.41083261428957   -3.57177783434074   -0.32120202235422
H           0.60014887487323   -2.36716016483186    0.65141229827351
O          -1.97901133961075   -1.13929060573747   -0.62371885641862
H          -1.69210891219645   -0.16736408689949   -2.01873983097686
H          -1.28729043439358   -1.80766951832683   -0.52588919661469
H          -1.80419739291033   -0.49650159083444    0.08587719473901
N           1.09023034648637   -0.28683699909526   -1.61053232184818
H           1.91220192392891   -0.23916594641094   -2.20161216936512
H           0.95639550477440   -1.23634424651151   -1.22911697413227
H           1.17405651958269    0.39051575370293   -0.80147897690739
