    26
        -50.45468007  Gyration_radius:  2.51505156902 Dipole_moment: 2.465
 S           0.22548609248099   -1.09123236923877    0.21232108221108
O           0.52821318214036   -1.85426274901362   -0.98528481658834
O           1.11068273320321    0.04353220467929    0.37716364844766
O          -1.18869900965790   -0.67379307823359    0.23358512319755
O           0.37447550990948   -2.01493665849460    1.46072153692981
H           1.33468147294049   -2.26840177627505    1.40738430148937
O           0.04524532120072    2.30573376253411    1.25563064840394
H           0.58590926298562    1.56236268409928    0.91649627266775
H          -0.56487945656193    1.87953158150035    1.88794022075189
O          -1.34754273941977    2.98893335947787   -0.78001578909742
H          -0.73990640477435    2.78121117726205    0.01057962212884
H          -2.12546522395072    3.41313605681738   -0.41174826613836
O           0.01034625687790   -0.33241572602114   -3.01909914829837
H           0.30689117125108   -0.91686537619268   -2.26993049249641
H          -0.23879097822174   -0.92457176399354   -3.73228291266882
O          -1.49349998216483    0.51328699236236    2.61030890574026
H          -1.49799618550931    0.00873208874730    1.77417350933591
H          -1.05461266967012   -0.05112216229053    3.24897607346619
O          -1.88076382001298    0.73404360982792   -1.70457039875586
H          -1.14709280862081    0.42699328702610   -2.35428230206952
H          -1.70298967712410    0.13028244096288   -0.87813373003730
H          -1.65532366216363    1.72291833253388   -1.37082045178669
N           2.85755028484095   -2.18273307706874    0.71622556812450
H           3.79989426512065   -2.44272833915517    0.98053703481620
H           2.80938415896693   -1.17431871248597    0.60491473305334
H           2.64880291592578   -2.58331577936846   -0.19078997282065
