    26
        -50.45260457  Gyration_radius:  2.4783774416 Dipole_moment: 2.220
 S          -0.22809030563836    0.93460143023261    1.54608547651434
O           1.04379247531604    1.45173508881494    1.09693841720172
O          -1.26948645458744    1.06373620997898    0.53335057179781
O          -0.16119819398168   -0.41403417809297    2.08345684847097
O          -0.68044322491020    1.84229196493684    2.76217295197101
H          -0.53740519081347    2.72369722377935    2.43430245516638
O           1.35936821522646   -0.75145192175625   -0.45890752890939
H           0.79818243091676   -0.37546783497247   -1.17379544337814
H           1.39578600779064   -0.05981435178098    0.21938323745338
O          -0.34349392664282    0.63988177211094   -1.97786863361870
H          -0.74094878404546    0.95416028960795   -1.14646983089172
H           0.32388725552432    1.32384710322815   -2.18635653415625
O          -2.48371090484798   -0.94961079757681   -0.66654918806692
H          -2.24595269158243   -0.11754713249360   -0.20065397156173
H          -2.00033477184125   -0.90856334585115   -1.49994362045134
O           0.72499846288710   -3.20233903507083    0.11005767825600
H           1.35268762555714   -3.51177990835650    0.76595149139913
H           1.04019786115734   -2.29511769476752   -0.16697978778486
O          -1.40263532102126   -2.34775877478639    1.13573615815092
H          -1.92834271325976   -1.89892112672061    0.36187286826731
H          -0.57955784225155   -2.82661847956690    0.70546564037377
H          -0.95854656548894   -1.54506317728020    1.63151444863343
N           1.67761563627394    2.45268517531731   -1.63096062236487
H           1.68269935737481    3.46015515407547   -1.73203366923068
H           2.59205411187338    2.11466549168292   -1.90581062279324
H           1.56887744102126    2.24263086530615   -0.63995878051564
