    26
        -50.46186229  Gyration_radius:  2.40671404451 Dipole_moment: 3.154
 S          -0.65715080755532    1.66451957455648   -0.11961361984663
O          -0.63034894854477    1.22346023156901   -1.50586215061050
O          -1.77125970370564    1.07748972355306    0.60510670955184
O           0.61970504695905    1.45969908150055    0.53922141517456
O          -0.90921194628992    3.22247639607028   -0.12073243171491
H          -1.85602471312175    3.25744694480221   -0.19852052343851
O           1.17895243640062    0.55461497210819    2.99583308837695
H           1.02602434035580    1.07067457536024    2.18117113022511
H           2.01592042323994    0.10270484077632    2.86926465919131
O           1.83327239071616   -0.79702691839057   -0.11624195398541
H           1.82735926097631   -0.77802081265782   -1.11436356839706
H           1.50319505635735    0.09249941939872    0.13865938344614
O          -1.81620107542916   -1.07725103390005   -1.16489418298767
H          -1.37655192894073   -0.22845568564018   -1.40789866938554
H          -2.54444550719706   -0.81146650656948   -0.59500648419612
O          -0.16591526761027   -2.15487162256131    0.47191693269354
H          -0.82161887152482   -1.86558081597483   -0.25311162009285
H           0.75544706331028   -1.65621977089601    0.23543283997161
O          -1.04149132849927   -0.76845700633400    2.34735562569220
H          -0.53258116046389   -1.66649560393346    1.34905479391162
H          -0.26956754454742   -0.35853978820325    2.79938778401121
H          -1.42617726578078   -0.04525175073928    1.80180683709994
N           1.38429481061635   -0.47592768685079   -2.70688691486676
H           2.07282603210798   -0.07383890650561   -3.32981097565923
H           0.69640528487861    0.24584048865583   -2.49390447743007
H           0.90514394329146   -1.21402234919352   -3.20736362673498
