    26
        -50.46186234  Gyration_radius:  2.40670822725 Dipole_moment: 3.155
 S          -0.16681146866341   -0.96332607380953   -1.50380113676331
O          -1.56699588784724   -0.60351920406036   -1.35872960929785
O           0.63498278910600    0.17326439455330   -1.93073113583294
O           0.38147061592876   -1.59941534010528   -0.32011093552524
O          -0.11035243039581   -2.04373591675347   -2.65283966173731
H          -0.78791410063081   -1.72663406878063   -3.23936050635581
O          -0.76456985521230    1.37899789578692    1.55131702686728
H          -0.77908027893815    1.79616139084520    0.62123138873371
H           0.17250358389618    0.85791979356687    1.61319774330254
O           1.35913526351861    0.08694722540601    1.46755956456905
H           1.97105259719796    0.66252490089798    0.92819606949904
H           1.09046485392827   -0.62214321295617    0.84292178157166
O          -0.86038128972144    2.05796334272553   -0.91721302529828
H          -1.73030046829645    1.75261636168611   -1.19245816856744
H          -0.23497563220602    1.43100555756412   -1.35150338358837
O          -0.84039901523485   -2.54657571108998    1.86561253125690
H          -0.18863225695296   -2.39689731181160    2.55376636608619
H          -0.37534583911185   -2.40383026055033    1.01903255906295
O          -2.37032613545887   -0.48381628568287    1.15448459462388
H          -1.50828686336310    0.61359723182451    1.49294434395653
H          -2.21609615904963   -0.58062483764934    0.18730213105986
H          -1.98567234751982   -1.29719992003882    1.55286703174266
N           2.65613895111517    1.51445871174225   -0.34792305595177
H           2.10986104797363    1.06729193210974   -1.08353650505136
H           3.63531318791228    1.36568612809653   -0.55499179800895
H           2.47521711802456    2.50928326648206   -0.39723420034863
