    26
        -50.45406477  Gyration_radius:  2.45673591036 Dipole_moment: 2.142
 S          -0.60620363432840    1.20568849674593   -0.37079389744144
O          -0.22274909331459    0.32537217683419   -1.47224032904799
O          -0.43497360747941    0.54194038657188    0.91470346114929
O           0.17561318585909    2.45415290283655   -0.41107300105093
O          -2.07091472451949    1.61461546553799   -0.54166922681709
H          -2.62061132560343    0.77354976188224   -0.39600778911566
O          -3.38607196711055   -0.55046768056307   -0.30792018325549
H          -2.73849101770575   -1.21982795629348   -0.68983673427523
H          -4.13734541797992   -0.53530462931521   -0.90496203173587
O           1.54345655983727    1.17763198191856    2.46732128220097
H           0.73850554515083    0.85829869619056    1.98198071004614
H           1.24334168193719    1.87877080970683    3.04893337046672
O          -1.55144464442082   -2.01979810507058   -1.39141560647400
H          -1.05320967232210   -1.22603112043477   -1.65430712115038
H          -1.01763372745523   -2.38646721554825   -0.65074175811868
O           2.24853539513238   -0.30478975733653   -1.07644833675909
H           1.27789139889474   -0.16346721289954   -1.24683085454379
H           2.65832927390722   -0.39219560000716   -1.93970201410523
O           2.46829004161823    1.88721660914260    0.21122503116224
H           2.28464088438230    1.63405196123623    1.18731882930394
H           2.55245229621021    1.00209977169283   -0.29159780942421
H           1.46675630936103    2.24749699945558   -0.11297774086187
N           0.13221016107619   -2.30681936116719    0.71288629979734
H          -0.10773991600078   -1.34069444674125    0.92962259394258
H           1.10680695591933   -2.31242561768107    0.43687912475073
H           0.05055905895240   -2.84259729669415    1.56765373134048
