    26
        -50.45406451  Gyration_radius:  2.45685042627 Dipole_moment: 2.140
 S          -1.33745638056556    0.20379634558627    0.35692068990576
O          -0.64936354706288    1.36084706762676   -0.21116005617149
O          -0.51475558017606   -0.99477428251732    0.26025162079119
O          -1.70684092149071    0.45989576919442    1.76025415000972
O          -2.65121182722518   -0.01848334431692   -0.39572093072235
H          -2.39567036850006   -0.30829025208579   -1.33445867368797
O           1.54560153902219    1.62866219422181    1.12026688951902
H           0.75666777421881    1.53696963600823    0.52013958034748
H           1.73282929288971    2.56842467546137    1.16947108827601
O          -1.95216485810159   -0.60267936968398   -2.77128381692676
H          -1.10596481514496   -0.06645325068409   -2.86967080493994
H          -2.58007458518584   -0.22629311424059   -3.39189783148407
O           0.14104113027926    0.91966667412144   -2.75109343604319
H           0.89727781860985    0.34353561974867   -2.49754966969246
H          -0.13632518723134    1.30963491482493   -1.90347638963697
O           0.64806112852357   -1.96030934489418    2.36838187520456
H           0.04810675489313   -2.59393466479253    2.76642435522000
H           0.24488234482442   -1.70895166407644    1.49672014025807
O           0.36158474626914    0.46633445490747    3.05903116821549
H           0.95975078145348    0.96545304086802    2.39862315889372
H          -0.63169757000723    0.51525920192023    2.56039303378078
H           0.59381366275609   -0.52572267322105    2.94661179529633
N           1.86231298496809   -0.66944818708559   -1.38871710311978
H           1.05002181724293   -0.93365408556662   -0.83347717083502
H           2.47968904523618   -0.14933022165229   -0.77686120675913
H           2.33988481951133   -1.52015514965967   -1.65812243569839
