    26
        -50.45406459  Gyration_radius:  2.45707351324 Dipole_moment: 2.137
 S          -0.78542448522715    0.49913080535059   -1.04397991534632
O          -0.38966820101842   -0.85071906190978   -0.66502802743417
O          -0.42473091583348    1.46327946801998   -0.00679887688752
O          -0.17136884961089    0.87097897627943   -2.33098595238891
O          -2.29887121565325    0.54282074971308   -1.26601559394583
H          -2.72219152579069    0.17453944749379   -0.41984339356733
O          -1.44195741151962    0.78144360820113    2.39572501900022
H          -0.78765924022831    0.06452168194008    2.55664729451053
H          -1.07644536004972    1.24809205184621    1.62362703899539
O           1.65767960459812   -1.98178339815589   -1.78799215511215
H           0.84892714134017   -1.67576313212109   -1.30072184319225
H           1.34085932884317   -2.45914420543872   -2.55726856976943
O           2.13349735914869    1.29248893351709    0.28814907926838
H           1.13994994882232    1.35470982735499    0.27876025803294
H           2.45147920542621    2.17171115345649    0.50397569505426
O          -3.30660731432254   -0.25393437607680    0.92968752397122
H          -2.63014318552955    0.08387546143440    1.59425044286553
H          -4.11675573163533    0.23005326568264    1.10443303632166
O           2.22889023771852    0.46970467922547   -2.12535722501567
H           1.16044363248430    0.71681345168467   -2.31465647215988
H           2.36252417743413    0.80830059869616   -1.17096378621292
H           2.18903250345833   -0.55180219399023   -2.05311434727020
N           0.48915826708892   -1.09687882119273    2.10013338463516
H           0.56715575783232   -2.03832848446538    2.46336105603828
H           1.42087531461984   -0.70089416013618    2.06622778617523
H           0.16135098761500   -1.16321631640609    1.13774853342440
