    26
        -50.45406455  Gyration_radius:  2.45693935426 Dipole_moment: 2.127
 S          -0.89514087981336   -0.38323072973847   -1.00481824696577
O          -1.24334636597034   -0.80591543226240    0.34974012420908
O           0.24400750877919    0.52475438213713   -0.99430470448861
O          -0.60979585264417   -1.55360371401292   -1.85397706569771
O          -2.09942707265171    0.31774636475389   -1.63728308272776
H          -2.22568210272306    1.18479126447945   -1.12437585892034
O          -1.68107723773963    1.29688605780480    1.98014578178267
H          -1.66464264281554    0.42388752800633    1.55002393208922
H          -0.72733254001372    1.51706208541009    2.08016242253735
O          -2.45403916895185    2.40535213241843   -0.22732381339060
H          -3.39378251900716    2.58421354107352   -0.14983505229936
H          -2.15378148869427    2.08868811262938    0.67977751950169
O           0.85310506571782   -1.96089031553106    1.31718172017638
H           0.03881513629046   -1.46296432616674    1.03479349666817
H           0.54657354047412   -2.66284900677299    1.89518449759397
O           2.58242278552759   -0.29473345769384   -1.76404438336565
H           2.65579892351300   -0.12205140402822   -2.70464411736850
H           1.74514668329157    0.14790532958685   -1.46709116689445
O           1.50946207529093   -2.49650366234693   -1.09065521274128
H           0.52493670016720   -2.16735266328907   -1.49568221476012
H           2.11320157146961   -1.71858999372708   -1.37374422934971
H           1.37595721300496   -2.38902717253874   -0.08410187581596
N           1.00676738018686    1.43664535656735    1.66336623442960
H           0.81836178347439    1.23943904837361    0.68175721168146
H           1.48921700607320    0.62856408289349    2.03789039109887
H           1.64427447777044    2.22177662194564    1.70185770302782
