    26
        -50.46154438  Gyration_radius:  2.43313611702 Dipole_moment: 1.341
 S           0.20600081561948   -0.60278421732398   -2.04313977404234
O           0.23128596675977   -1.87829468646595   -1.33160208837460
O          -1.14673979177017   -0.14746695179935   -2.28510261088840
O           1.04218890378886    0.38881770556167   -1.39232228429490
O           0.85869710384757   -0.85927511988864   -3.45842628764773
H           0.17913692612167   -1.32520468883342   -3.93491431345979
O           2.40387574285109    0.26634267286155    0.90642474535656
H           1.95315080117942    0.99582436128718    1.42338215311973
H           2.17121390004159    0.42850878177263   -0.02734270468882
O          -0.88682821598632    1.73929240095870   -0.20917468537084
H          -1.60716897657263    1.67836147932143   -0.84332827513610
H          -0.11943936299538    1.35348971319190   -0.68184098096982
O          -1.34103323112883   -0.29520927666904    1.49620007785932
H          -1.19911940662341    0.54235939184754    1.00192497088509
H          -1.93977133047670   -0.81998567167019    0.91341738565315
O          -2.45858241177968   -1.62772408605525   -0.50447702300366
H          -1.95800793411376   -2.44345613193202   -0.59006828197436
H          -2.11628208810793   -1.05168261629863   -1.21773630813067
O           0.77814482208213   -1.59225863111130    1.12276067823811
H          -0.09686670790222   -1.07437372747457    1.39992034518262
H           0.62299076204732   -1.81822509436047    0.13989947897643
H           1.56559097310961   -0.84702625085678    1.11252614077344
N           0.90667711893985    2.07841024927758    2.15871605570423
H           0.27221782722072    2.35503991921270    1.41621126178055
H           1.32578668078670    2.91522085891150    2.54283037220519
H           0.35288110306307    1.64129961653434    2.88526194224189
