    26
        -50.46154405  Gyration_radius:  2.43314101066 Dipole_moment: 1.331
 S          -0.87820895962630   -0.15629410264699    1.94518719671254
O          -0.52316411259857   -1.54119138150874    1.64527762916430
O           0.24460302524268    0.58375197819572    2.48121777941417
O          -1.50891653116849    0.49180462399730    0.81022752302111
O          -1.97461689485289   -0.20480972794789    3.08111606497972
H          -1.47643242462123   -0.42655551675631    3.86123953830860
O          -1.92198282141169   -0.39326491854461   -1.67945794264858
H          -2.06160346186642    0.01450693601362   -0.80388792389404
H          -1.38469460110648    0.27222608263075   -2.20006664958981
O           0.58278369598140    1.87550080614290    0.00058616540723
H           1.02511779371108    2.09278782872086    0.82635236842729
H          -0.26420026704222    1.47051866320300    0.28290599571030
O           1.81546803386265   -0.36975854799030   -0.83195610629170
H           2.20726245719778   -0.63037310443945    0.03526189915494
H           1.42551178444860    0.51629990909349   -0.66225909994515
O           2.24729020757917   -0.98942256491306    1.70906356158806
H           1.82878748934502   -1.84328744989613    1.84710647858534
H           1.61630063817812   -0.34152561303588    2.08302545326274
O          -0.16247271284373   -1.91910532774333   -0.83106143646455
H          -0.35543224659313   -1.88615927227867    0.17032522938974
H          -0.96586166503160   -1.34951039767221   -1.28478839100714
H           0.70059661650228   -1.32378037529911   -0.93773534893179
N          -0.24972416756898    1.33754779491036   -2.82010016263967
H           0.56895883026457    0.85951203717535   -3.17624555643904
H           0.04221230879564    1.88573961850681   -2.01721224078545
H          -0.57758201476820    1.97484202206399   -3.53412198447061
