    26
        -50.46154420  Gyration_radius:  2.43307428135 Dipole_moment: 1.335
 S          -0.44224106924629   -0.37642845314118    2.05978807106363
O          -0.80521449451608   -1.63940387403683    1.42181454970631
O           0.97473766696649   -0.30598348623772    2.34796833391113
O          -0.93702335648996    0.76301960089347    1.30947035016353
O          -1.19088814667282   -0.33856359585642    3.45007231325024
H          -0.69230398619172   -0.94590402230515    3.98709740716964
O           1.87212320378267   -2.21684418905041    0.72757466869122
H           1.68360405505528   -1.51934271921978    1.38763763528171
H           1.15652256929209   -2.84958929279425    0.83198266020108
O           1.25349006099526   -0.76438887092072   -1.40196865791419
H           1.33901533400314    0.11129400082928   -0.96392828928763
H           1.65650026053089   -1.39535679362121   -0.75936322046106
O          -2.19404615364809    0.87100396119599   -1.04896549465727
H          -1.53546368329395    1.40513290360752   -1.58140867821541
H          -1.95830344409318    1.02573383934368   -0.11473123055269
O           1.33819443915344    1.42897306705896    0.15860982568379
H           1.98776216230105    1.21113982271280    0.83342495513003
H           0.47609281863792    1.30933528233468    0.60986964733776
O          -1.15937671095440   -1.38146115229259   -1.07077540482972
H          -1.11038873481736   -1.57328435094050   -0.06979964040265
H          -1.70155551346247   -0.44567625022099   -1.14539012055090
H          -0.16371834367209   -1.15183479097117   -1.32906930274964
N          -0.19756889494835    2.09361500846842   -2.31904902157442
H           0.46213991883093    2.23176457224324   -1.56005442238559
H          -0.34654847791564    2.98534215578422   -2.77300192539888
H           0.23445853038465    1.46770762715344   -2.98780501859028
