    26
        -50.45296511  Gyration_radius:  2.6162863076 Dipole_moment: 2.349
 S           0.63525423455978    0.97497484289725    0.57435872234094
O           1.70917200132770    0.09253215120160    0.97270265700988
O           0.65816210557337    1.28986588012092   -0.84820437207840
O          -0.68014441896085    0.43952709491857    0.96300485575160
O           0.76790246766549    2.31620214499580    1.35744198652898
H           1.66222932076429    2.62058508039000    1.06796998004142
O           1.45846843418499   -2.47658894434635    0.36753687939525
H           2.12924764067625   -2.92228188444343    0.88799368059011
H           1.59183968451953   -1.51635436897262    0.52671414845135
O          -1.07762102503487    0.57529000203953   -2.60846149096651
H          -0.31899236725834    0.78936414407013   -1.99814292387173
H          -1.20108947475469    1.35127438254783   -3.15849784136149
O          -2.96852438823550   -2.19661052693352   -0.20235245758345
H          -3.74724714170650   -2.40202200612767    0.31835295712142
H          -2.17677665123736   -2.32380127079599    0.41576869643086
O          -0.99075785409468   -2.20991189194275    1.43784787280189
H          -0.86908490635571   -1.24518066003616    1.49747160456329
H          -0.15788179309370   -2.52296553666253    1.02667700152960
O          -2.59546977374923    0.25170443368084   -0.61666995311412
H          -2.81981816816542   -0.77123153306547   -0.50374948045831
H          -1.83758236275220    0.41978402859779    0.08574115123702
H          -2.09652689815951    0.35262674296601   -1.51518711247222
N           3.08341098403348    2.42655758699618    0.15928136501136
H           3.26649483816955    1.49788438781670    0.52466197074968
H           3.96518725756518    2.89680587865161   -0.00471411117240
H           2.61014825448595    2.29196983128671   -0.72754582648037
