    26
        -50.46154455  Gyration_radius:  2.43347918952 Dipole_moment: 1.371
 S           0.87216109525680    1.60131768309649    1.12004070099038
O           0.06834566877614    0.91122284229159    2.12559814437166
O           2.16834467845337    0.98029769639754    0.94663526159006
O           0.14163230376300    1.77180610677298   -0.12234889797137
O           1.13763605352770    3.05770326267758    1.67105692098426
H           1.80667585191277    2.92491736891373    2.33489707655525
O           1.68898769533748   -1.40052347864820    2.03514920055510
H           2.01485222414199   -0.56624779442137    1.64084630499401
H           1.12592047539701   -1.12163690780933    2.76219507080293
O           1.29116813961382   -0.18210097119302   -1.46560368079182
H           2.19169263496006   -0.16962053464959   -1.12853570052876
H           0.87839946924350    0.61620543679763   -1.07370633719245
O          -2.27449330677903    0.88160329717340   -0.84487838307660
H          -2.02831929995284    0.29848044193563   -1.62088237949742
H          -1.50326755470133    1.46235349070188   -0.70219983418246
O           0.05042459262722   -2.03186084642992    0.04907718509118
H           0.69535438964169   -2.03975062450686    0.79578963256555
H           0.47328986355220   -1.45727177474288   -0.62684459812275
O          -1.70593085611671   -0.56442075863319    1.08596928974733
H          -2.08137820894729    0.04407603558470    0.27012523065403
H          -1.05847268138632   -1.26594810700198    0.64004361730430
H          -1.07597819669822    0.05239236324004    1.59928804576938
N          -1.35902264673055   -0.78099216237149   -2.71276281601078
H          -1.65798026909843   -0.68659909337315   -3.67460795866146
H          -1.49732005702267   -1.74436634747219   -2.43282286434987
H          -0.36272204880900   -0.59103662434477   -2.67151825151534
