    26
        -50.46154454  Gyration_radius:  2.43330867907 Dipole_moment: 1.373
 S           0.42727431303219    2.09509642929199    0.08586730858099
O          -0.18893333921402    2.13926215622740    1.39516226491478
O           1.75908978951816    1.49719061709818    0.13132757159561
O          -0.40540610084964    1.46843679148125   -0.92426485002392
O           0.61678783499928    3.59367622685670   -0.37629125185297
H           0.94712513949275    4.02557996502285    0.40480736555876
O           1.30576217422849    0.34354569297149    2.66985277662622
H           0.70435190630312    1.04238149991587    2.34177934423143
H           2.15799866815097    0.55382914456603    2.27889659554937
O           0.07714225262325   -0.63679698259696   -2.50023105754202
H          -0.64534824047664   -1.26006866840335   -2.19613233857990
H          -0.19516080014772    0.24705200967716   -2.18829146651979
O          -1.83318787966644   -0.03983662998793    0.69777710866810
H          -1.41468062094571    0.54991107649025    0.03577527981464
H          -1.90885043743286    0.50778269453938    1.48461714580352
O           0.29329307494979   -1.61599203854491    1.19870024522724
H           0.69467165347267   -1.06599499342561    1.91271423842682
H          -0.56736849322768   -1.17874361590824    1.01480125302168
O           1.76572864947793   -0.89218983159498   -0.70475639652417
H           1.88072599992515    0.08047403166198   -0.42000154401026
H           1.18750548193512   -1.31134268939034    0.06956509330159
H           1.10873242532572   -0.84981088285439   -1.56775465569914
N          -1.76213141983517   -2.19623953284781   -1.37091524173456
H          -2.51246703150472   -2.58884781637336   -1.92433259231828
H          -2.16905781524059   -1.55899043693965   -0.69361726407971
H          -1.32359720478819   -2.94936420699182   -0.85505494249311
