    26
        -50.45617982  Gyration_radius:  2.6200086102 Dipole_moment: 6.924
 S           0.36285367504172   -0.15986001507008    1.02192225671837
O          -0.06654205402051   -1.55660149308230    0.90274875674227
O           0.70109038540139    0.32171441164494   -0.42576105506506
O          -0.65115511032362    0.68476767735044    1.58634154030880
O           1.65922566648103   -0.07626902315069    1.71332092713480
H           2.55014817749003   -0.52184038838931    0.75193433169984
O           1.70419721592456   -3.18823906481769   -0.03883022466299
H           1.84031069498884   -3.84024072722358    0.65098102981660
H           0.94863496512592   -2.62113939188267    0.27898314637619
O          -2.17715129567583    2.91528185284843   -1.33521083790669
H          -1.68982568044530    3.48787808228390   -1.92936680383622
H          -1.79213238022638    3.06403429304946   -0.43930152127157
O          -2.55584151704081   -1.41005625789773   -0.02694861995817
H          -2.70698216332184   -2.29112051657795   -0.37469627292006
H          -1.70861206903102   -1.45136410248927    0.46137457027623
O          -1.03561692225224    3.22516229806333    1.05712396940356
H          -0.82114941480268    2.28551111733558    1.25728744688781
H          -1.65169026677142    3.49143873709590    1.74233495312262
O          -1.45156073527306    0.37190870090446   -1.70049597315655
H          -1.81226498160304    1.28485582487900   -1.59929470592207
H          -0.18235430355633    0.35788724948172   -0.97824972639353
H          -2.02154715137765   -0.21132932348288   -1.15415008122262
N           3.07355234762111   -0.94245952729283   -0.15836875508212
H           2.71743954799324   -1.93574350664785   -0.21317507188534
H           4.08484995993864   -0.87895904012343   -0.11908566768934
H           2.68212339971897   -0.40521786682748   -0.93141761151795
