    26
        -50.45448271  Gyration_radius:  2.3690013717 Dipole_moment: 2.251
 S           0.23568048361478    1.74158909277866   -0.37145647683914
O          -0.05841650833359    1.05188412608861    0.86283871591538
O           1.54745685825845    1.45799926493043   -0.91522902434684
O          -0.82513588926418    1.53827128156018   -1.36108191796546
O           0.21416824759683    3.28557600635102   -0.02090932639728
H           0.50794797674919    3.69800671154781   -0.82688858805010
O          -0.30872959696394   -1.25454598868183    2.39575555701165
H           0.02619669093936   -0.47302395017912    1.92619990987718
H          -0.14260579659545   -2.00728991829515    1.82329481408053
O           0.72678080638912   -0.36792177339818   -2.72169141483028
H          -0.04639592802805    0.09708292016569   -3.05253604844098
H           1.18399561741685    0.28267266916957   -2.15703254703048
O          -0.00284629126347   -1.90920572484398   -0.67483686645900
H           0.76205040844026   -1.60079725108689   -0.11020371130850
H           0.26058018216370   -1.60622968114085   -1.57205327735598
O          -2.47653942401608    0.20204919621234    1.85195945844883
H          -1.88934518696425    0.96907780552237    1.79329760952777
H          -1.93538167208177   -0.46736595094863    2.32032678190371
O          -2.05583523692233   -0.48876497474287   -0.55317704384209
H          -1.22754595935143   -1.16377206224259   -0.53431308643243
H          -2.32719214904682   -0.26001376506183    0.42403337805985
H          -1.64551718853718    0.37689237892814   -0.93476399002416
N           2.14663271116303   -0.93100092909702    0.55039528621045
H           2.05957707072741   -0.00111753449579    0.14188029552985
H           2.98457688535025   -1.35359565112833    0.16947255193239
H           2.28584287739563   -0.81645629403454    1.54671897005087
