    26
        -50.44991616  Gyration_radius:  2.48965222142 Dipole_moment: 0.434
 S          -0.20837768910140   -1.79670697466112   -0.83380509776837
O           0.95388959896054   -2.13413682802845   -0.04470965209146
O          -1.42454132201267   -1.76365338244861   -0.00694224792587
O          -0.07123095665172   -0.58982445077086   -1.61675101644123
O          -0.41743096969769   -2.98460690149427   -1.85511664973803
H          -0.20333150064479   -3.72563352843853   -1.29901955028734
O           2.41166950879497   -0.05340370583824    0.72907182034840
H           1.99108484257572   -0.90779226325527    0.49884941597520
H           2.54984580868880    0.39520627060049   -0.14093238260872
O          -3.17195326715828    0.97723721675029    0.78500925439320
H          -3.63775588558931    0.35015919745104    0.22688558526758
H          -2.45578825957479    1.37355574973533    0.21258622965553
O           0.49992640781808    1.19369116314851    1.80446370942752
H           0.82543153391038    1.58565379563350    2.61604421819379
H           1.30167288287035    0.69526426432754    1.38739175050810
O          -1.02248383000730    1.65901629292646   -0.52882388327083
H          -0.72767698284154    0.86732923909098   -1.02362712716982
H          -0.37744237066515    1.77675109468210    0.18164764090002
O          -1.47223411110336   -0.39900098017853    2.03575046056692
H          -0.64358255088886    0.21199120934253    2.00340718000110
H          -2.25701806212700    0.19271861859543    1.68790248943524
H          -1.38313319725250   -1.08032606917237    1.21968182989627
N           2.33438612498822    1.00336955428004   -1.75428381759577
H           3.02299869909695    0.74474558697994   -2.44934066034605
H           2.08119192477283    1.97013302865226   -1.91660977182369
H           1.50188360284079    0.43826278209846   -1.91872972749479
