    26
        -50.45260457  Gyration_radius:  2.47821587745 Dipole_moment: 2.180
 S           1.28399490604484    0.88503757201145   -0.94045660121387
O           0.73236967272776    1.95900106234890   -0.14748688508737
O           1.72108757143901   -0.24111282472611   -0.12295500353824
O           0.42821772279655    0.45953833808725   -2.03519727402656
O           2.58794743192406    1.45602116541444   -1.63391561922827
H           3.05845517501114    1.85340508209402   -0.90880277920237
O           0.65164670309211   -2.65413127675242   -0.16963674897770
H           1.24708965695348   -1.87230478602144   -0.15725319444432
H           0.13083162870703   -2.57602137690647    0.63816541580675
O          -2.73529715891243   -1.01240238253329   -1.51274061081957
H          -2.35763487155643   -0.41707034674307   -0.80409431855549
H          -3.14883565546350   -0.43117911747457   -2.15385049264805
O           0.08249199866156   -0.69407605167695    1.98788536614219
H           0.80724556814472   -0.52619426402299    1.35983305450790
H           0.09936130029511    0.08966949812080    2.57288705359969
O          -1.52608036367444    0.49683504940317    0.21685798566845
H          -1.12007582880509   -0.01957851931780    0.94883148086376
H          -0.84427698337770    1.13357905872752   -0.04689952175669
O          -0.48774631487178   -1.83921857103309   -2.26948702519953
H          -0.03245025649441   -0.90119814215011   -2.27096010737377
H          -0.07048697942308   -2.31374277826152   -1.44651034174606
H          -1.47502597536268   -1.60685442708493   -2.01710983792370
N           0.23921162410466    1.91943232013859    2.78404889145388
H          -0.65829625920502    2.34831959883468    2.97531217867302
H           0.45506636453109    2.10637877541598    1.80602129558341
H           0.93118932269957    2.39786734411827    3.34751364944978
