    26
        -50.45772499  Gyration_radius:  2.48315052853 Dipole_moment: 5.326
 S           0.57803746029337    0.61199999021013    1.38013330958007
O           1.25336810169793   -0.02403470479697    0.23035724837033
O          -0.86164127651984    0.72097239689220    1.07333085089429
O           0.84414075624144   -0.09812484502690    2.60161241087839
O           1.12151841985342    2.04725987043824    1.50316556771282
H           0.64625159021971    2.54936809691849    0.75461836299892
O           0.43981171796036   -2.69966864917486    2.71541910439851
H           1.17369944270780   -3.06071478094592    3.21533245572186
H           0.52929390265076   -1.72113443115057    2.77961982423097
O           0.84892844695724    0.91497021360754   -2.12635366924920
H           1.02351484950365    0.58259658197786   -1.20085708561148
H           1.65860979006481    0.75553015192878   -2.61402115267091
O          -1.39174869524897   -0.45508389372343   -2.58489982204217
H          -1.13715132240220   -1.19690153362429   -3.13705562254794
H          -0.59128914642208    0.11110029709008   -2.48162111685944
O           0.34910673800703   -2.47866782339359    0.09333588564337
H           0.37504355457199   -2.77695049232150    1.03482148930725
H           0.86762373210509   -1.63886298313698    0.09229929262563
O          -1.78030152646508   -1.22079405634766   -0.14634432652715
H          -1.46961817602937   -0.37986848701172    0.42791134311974
H          -1.76067128228519   -0.90934544394605   -1.10960879542394
H          -0.94135276815839   -1.88695997159967   -0.05002302632718
N          -0.26347813234579    3.04475495449295   -0.42817431407076
H           0.05950339709748    2.61159888558754   -1.28700881263674
H          -0.45804283061529    4.02217261012127   -0.59771379602220
H          -1.11315676339816    2.57478805689397   -0.13827560539004
