    26
        -50.46933043  Gyration_radius:  2.44173755147 Dipole_moment: 6.757
 S          -0.51543832010873   -1.77942983676288    0.48806257432225
O           0.32878324366877   -1.59115042847382   -0.69363958670639
O           0.30224409349450   -1.90557821671159    1.68101789748041
O          -1.54745146998616   -0.77601833385371    0.59168093118741
O          -1.24716656084383   -3.16116883606935    0.29341759937102
H          -0.52235121737887   -3.76837016321524    0.38933933840573
O          -0.58793674352013    1.68920456262673    1.09495769900345
H          -1.04493767034871    0.84228358206635    0.93874542985732
H           0.10636411835408    1.48202967359504    1.73310021218319
O           0.70942130171833    2.14932496013173   -1.19762959182783
H           1.64847805570038    1.14651343290379   -0.70608295359226
H           0.13658066675670    2.21777196671094   -0.40135913123966
O           1.51200064121831    0.27125301760765    2.38558630837072
H           1.01954848735912   -0.56937561253130    2.19138538549187
H           1.83999737994264    0.18661420842931    3.28201472835986
O          -3.02624001841113    0.43981375721395   -1.30686656894938
H          -3.20964264667953    1.29215790636379   -0.90627573582305
H          -2.63693521328488   -0.10742567357783   -0.60088380675500
O          -0.58926775046742    0.27705112800160   -2.50335862284354
H          -1.53811812824685    0.37115667946582   -2.29191625780483
H           0.19734787909150    1.58350177442799   -1.83476329414474
H          -0.29297862036808   -0.49353185250741   -1.99224798090482
N           2.15952483620393    0.26284376580806   -0.26552827144752
H           3.08433745762269    0.12036025907439   -0.65455490153519
H           1.52712997042395   -0.55323743803727   -0.47540747072087
H           2.18670623808872    0.37340568730797    0.76120609027020
