    26
        -50.46185049  Gyration_radius:  2.40110319038 Dipole_moment: 4.323
 S          -1.77900402164082    0.17760527237841    0.34652609967582
O          -1.69938117329418   -0.01126009922036   -1.09600593137448
O          -1.12385354990381   -0.92337641954423    1.04794956961541
O          -1.30648786430963    1.47314322430237    0.76801326296807
O          -3.30655070627340    0.09399259089410    0.73123586533603
H          -3.52845496559863   -0.78421366132616    0.44248205714881
O           0.68566722249076   -0.74707378432907    3.02438986677997
H          -0.09210705047717   -0.86622018513902    2.44579955686964
H           1.32666726174934   -1.40223913174835    2.73902158517255
O           1.19106310610331   -1.44447132085764   -0.12195686055956
H           0.32069953119287   -1.34659351948583    0.32486359615365
H           0.96319467754558   -1.62454831856294   -1.07451945958210
O           1.98487793046827    0.92037531539659   -0.17410368229410
H           1.31804927688104    1.33092803094100   -0.82967750021487
H           1.74651637785430   -0.11766701996526   -0.15119148980819
O           0.06833348175740    1.85530320057328   -1.59589769105105
H          -0.27830509674058    2.58530125947021   -1.07390687156268
H          -0.61972435257762    1.15382693234309   -1.51586919781870
O           1.02158730686390    1.67688642599133    1.99086441190400
H           1.01211614571037    0.87539430053447    2.56430014040170
H           1.68349754096004    1.29539671402438    0.78671247504206
H           0.09728871291307    1.75653646809015    1.66643732499936
N           0.24709322879399   -1.54176639528221   -2.60378239348558
H           0.69105897947872   -0.92124173389710   -3.26916780040379
H          -0.60045611833568   -1.08064924831088   -2.27664499262692
H          -0.02338588161135   -2.38336885727216   -3.09587193128270
