    26
        -50.46185049  Gyration_radius:  2.4010956755 Dipole_moment: 4.323
 S          -1.36982167771341   -1.19865681144746    0.05718494438723
O          -0.70046735114488   -1.33906639254741    1.34371277260625
O          -1.77533885161107    0.18684070772534   -0.16490901491093
O          -0.60124210691695   -1.74152997095765   -1.03548381566503
O          -2.70377041105959   -2.03594868501975    0.14614503616376
H          -3.15203438751597   -1.60518151500872    0.86543476397596
O           0.21640149383781    1.79376843909312    0.50577239460333
H           0.42847467850841    1.56027196212738    1.45035640306695
H          -0.58371943876854    1.26265913198952    0.29483733964670
O           1.73369271070243   -1.67245365453186    0.43675413605749
H           1.58435022333230   -2.30892157743762   -0.26904932706273
H           0.85437845022756   -1.58715728687391    0.87427552222854
O           1.97038507242458    0.57081155736340   -0.78005140293210
H           1.28014238376322    1.17867835800311   -0.24254387550162
H           2.00816344794953   -0.30856894621358   -0.26211287169516
O          -1.34436278959567    1.67787399792926   -2.35644658821141
H          -1.68295172223729    1.13047235069262   -1.62187244118907
H          -1.06104277330764    2.50397299419647   -1.95789669328979
O           0.58608746744804   -0.10790925362193   -2.73205309595966
H           1.46645827211340    0.32241693667313   -1.69601280470692
H           0.11440464850139   -0.83670078795873   -2.27128198126464
H          -0.09174757288743    0.60106898198767   -2.82789354258132
N           0.69721833900530    0.68826544879994    2.87361578339927
H           0.14906025173909   -0.12004613534531    2.58358103898846
H           0.33123331396783    1.01455618240515    3.75858868699645
H           1.64604832923803    0.37048397797124    3.02734864285359
