    26
        -50.46198070  Gyration_radius:  2.42932218508 Dipole_moment: 3.733
 S           0.01934270484880    1.03016563322756    0.77607366464308
O           1.18342737017241    0.32959323281990    0.21270065739139
O          -0.74100279857604    1.66801935039459   -0.29124846800324
O          -0.80312238990476    0.12755759210310    1.56078228743828
O           0.56353718339725    2.12231497031536    1.73246732216352
H           1.05036742361505    2.71652894494164    1.09729627497064
O           1.78735601174931   -2.19964740645418    0.62874164652763
H           2.41822939001553   -2.30247508585430    1.34215772147941
H           1.64034864656740   -1.22952382398274    0.53007646004516
O           0.51859636493839   -1.05181188127943   -1.90806221875079
H           1.15326171884721   -1.76676766552285   -1.79706143826451
H           0.74930683240871   -0.39530630347815   -1.20644036839016
O          -2.87844599268256    0.21530361832705   -0.31468682801678
H          -2.13695487304263    0.86775819456253   -0.41455741077759
H          -2.94980390923588    0.09557412601430    0.63839618573894
O          -0.82204215155320   -2.44999483598325    1.15157920706393
H           0.13652447938184   -2.59925249146861    0.99586025271086
H          -0.86626382898771   -1.52118749461237    1.48644961515313
O          -1.74359572450375   -1.89856816877322   -1.09114384958485
H          -1.40670395886815   -2.25747708922969   -0.13387718573872
H          -2.30206355451192   -1.04615342924561   -0.85938625913507
H          -0.88754726090715   -1.56392810774196   -1.54684615220849
N           1.56546838584776    3.27077303978149   -0.38218587517077
H           2.33154942655110    2.70129617013146   -0.71738699452201
H           1.71111739251619    4.22351092596436   -0.69057033095951
H           0.70911310191807    2.91369800503984   -0.79912788580874
