    26
        -50.45332587  Gyration_radius:  2.55328191961 Dipole_moment: 4.716
 S          -0.30082547080713    0.30122977978549   -1.12242029110472
O          -0.74585944765283   -0.95082836962377   -0.50114214365966
O          -0.30736112662827    1.37906543883121   -0.12667507611997
O           1.01027523971718    0.14552762042438   -1.72072817701262
O          -1.29558822438494    0.66445963816054   -2.24264842919718
H          -2.03592176127229    1.13063989575928   -1.75148341399772
O          -2.91173133142062    1.78747766524284   -0.60654117406889
H          -2.08329634101490    1.94852904690955   -0.12889075856075
H          -3.30358187165456    0.98272455220253   -0.18849973047236
O           0.58067693412258   -1.61412111415082    1.56910883554282
H           0.02901903085328   -1.31672868319133    0.78132091988764
H           0.66232885432586   -2.56618494974935    1.47797616089939
O           1.98779699482409    1.91353705895312    0.84418586547709
H           1.11392750620325    1.74330342121077    0.37917606641159
H           1.77200906139271    2.43459243938225    1.62070725988967
O           3.09311313394343   -1.19023082883224   -1.12474076372246
H           3.78700694654675   -0.76817204462056   -1.63574944382370
H           2.24076461169423   -0.76334039502660   -1.43320626470700
O           2.78313496678495   -0.43404840907219    1.24759451298053
H           2.51289555726622    0.56917140536822    1.12277563917914
H           1.89436386383799   -0.93120878602529    1.46670001015651
H           3.02631121773269   -0.77166379764042    0.28795063329950
N          -3.43441420510079   -0.65801360574612    0.39818036159157
H          -2.49107477215870   -0.90405264040312    0.09218654143607
H          -4.08174809712024   -1.26301901010185   -0.09097809358468
H          -3.50222129010337   -0.86864533817568    1.38584094309496
