    26
        -50.46933059  Gyration_radius:  2.44176261014 Dipole_moment: 6.747
 S          -1.36356481105374   -1.32562090783043   -0.22046888747993
O          -0.57173946481417   -2.31646849384420   -0.92683655905843
O          -0.81820953994677   -1.09465560647495    1.11885979616835
O          -1.55351399094991   -0.09835800072732   -0.95560096934023
O          -2.79369525238672   -1.95410126011854   -0.01421830636375
H          -2.56975810537817   -2.81492049214424    0.32051091507552
O           1.60100198461614    1.81349497881644    0.84111856394811
H           1.34640071768257    1.81077543167809   -0.10867037024399
H           1.83486738689593    0.38329926722950    1.00944057485009
O           0.75431487176702    1.13023813449490   -1.60139360901266
H           1.29592830313539    0.36915689576404   -1.84560570914520
H          -0.13538642285755    0.76365772208338   -1.44469248158496
O           1.79873764906335   -1.51426103943807   -1.58729066049989
H           2.17686568934151   -2.11158623657126   -2.23424133983897
H           0.87829138814179   -1.84401205059341   -1.41164270311627
O          -2.36178228313648    2.33775687109002   -0.13191797694830
H          -1.93081474599007    2.91977100950288   -0.76131325557966
H          -2.24175181198606    1.43508811493161   -0.47876582440756
O          -0.77435193893338    1.54213035166094    1.92842448281940
H          -0.90146358094325    0.59226523761886    1.77247356526462
H           0.74320020345507    1.89048232201087    1.33749304246673
H          -1.42180569433812    1.98290570523396    1.34512525072443
N           1.79486901695485   -0.72775880916436    1.02626513755337
H           0.77621877704944   -0.96414412136782    1.15458824321238
H           2.35971547555865   -1.12154261031446    1.76979385726026
H           2.07742619900443   -1.08359241350682    0.09856520331879
