    26
        -50.46933054  Gyration_radius:  2.44181381288 Dipole_moment: 6.743
 S          -0.17436554246799    0.23675481143887   -1.89134687169698
O           0.37795942779387   -1.02315688349869   -1.38913661719016
O          -1.62176031807620    0.15916438578250   -1.97363739885109
O           0.30764099962207    1.38049591443471   -1.15494783494661
O           0.35412906085545    0.39505277203752   -3.36722823345340
H          -0.13027529888037   -0.29177481262087   -3.81088528648493
O          -0.57803159595379    1.46830712550274    1.38684941061025
H          -1.49229810356394    1.18319127522886    1.26385349715743
H          -0.21881997870069    1.55168696630888    0.48436150018251
O          -2.81819079526759    0.07891761528370    0.31994658574681
H          -3.75298733447103    0.25681909959123    0.20676124023243
H          -2.40831322771060    0.17179345493787   -0.58017764156237
O           2.73315420538873    1.89362273543660   -0.09685335563035
H           1.91350827345557    1.80893872959677   -0.61708173266301
H           2.51790767210580    2.47019759356373    0.63927730541222
O           0.67687864326365   -0.67555327975021    2.37634496773599
H           0.31118908371794    0.22492286908343    2.22687826371081
H          -0.26073447220520   -1.43232950769306    1.55358328141523
O           2.43629982632265   -0.75852153550039    0.42809575056299
H           1.83044493457879   -0.92469605535605   -0.31220585482978
H           2.76741332427436    0.14897003705198    0.28474261205520
H           1.47732390826439   -0.72889500633115    1.78928062633813
N          -0.92453926626225   -1.83692553877199    0.75871028196046
H          -1.80404234964215   -1.29512381575179    0.75352019424188
H          -1.09362897629912   -2.83015238218411    0.86768936434560
H          -0.42586209008985   -1.63170658788313   -0.14639406442988
