    26
        -50.46347777  Gyration_radius:  2.43844486066 Dipole_moment: 5.962
 S           0.40215349180721    1.09616933390338    0.68882560458856
O           0.52182481982117    1.10312215608772   -0.77547873262869
O          -0.80246579797308    0.41522517942500    1.11943174222703
O           1.59879309155481    0.54734718581643    1.30457173309345
O           0.30474111204479    2.59307632096692    1.13745572638533
H          -0.37517641208860    2.98850813334160    0.56312916683860
O           0.86539518279544   -3.01687287950882   -0.12098878453527
H           0.79743502986547   -2.79395799338742    0.83696046082258
H           1.69467977126262   -1.88555405941280   -0.58757580935360
O          -1.23682603273431    3.01712405369030   -1.02980791193616
H          -0.64383789337063    2.24749850154512   -1.17284281522172
H          -0.99619173472896    3.67821619500418   -1.68210890050642
O          -3.03905928559998    0.79261025600658   -0.51840227425342
H          -2.83281837776428    1.67015885483888   -0.85403873044160
H          -2.43976202826708    0.66649068162962    0.23088542205333
O           0.58514163455735   -1.79213286806777    2.23842294965437
H           1.05459201999563   -0.95341460430812    2.08703887464832
H          -0.33926774892042   -1.53472839997650    2.30614029517117
O          -1.17462875302911   -1.45757963416908   -0.80460522774362
H          -2.01189205459208   -1.17523807658689   -1.18624380742825
H           0.00398717482841   -2.74529340300117   -0.49112502757495
H          -1.01657997571469   -0.81631393517867   -0.08963902545438
N           2.19016155883371   -0.91826972833576   -0.78679917630613
H           1.49344695929667   -0.25485933457676   -1.19025332785470
H           3.02454291174935   -1.00430653415170   -1.35717082355666
H           2.37161132616453   -0.46702542154435    0.13421839925887
