    26
        -50.46347780  Gyration_radius:  2.43825294282 Dipole_moment: 5.952
 S          -0.12071985154639    1.32124547668896    0.27729715019405
O          -0.39379102407619    0.86352327004530   -1.09156083152401
O          -0.58988121679293    0.36520186608348    1.26019760829947
O           1.28670722359299    1.64296851751646    0.44577054988264
O          -0.91837781118664    2.65436699687451    0.47203515538233
H          -1.82026234337254    2.46251118346481    0.15857646669993
O           2.01445698379919   -0.39474371431039    2.08640756671304
H           1.15406089941511   -0.58553393755235    2.47208396057298
H           1.88380714120044    0.44989243289766    1.62134064927693
O          -2.97744451014177   -0.93753702440208    0.60647593514082
H          -2.24738890784205   -0.49884041328467    1.06585451949259
H          -3.38642825785510   -0.24627682316133    0.07717997285029
O          -2.91536397072933    1.52562823694179   -0.93920729816008
H          -2.05245208111479    1.12079702242888   -1.17595201716861
H          -3.25393135107687    1.94241863343876   -1.73423652751617
O           2.33653818837694   -2.10166771123622    0.05443221308304
H           2.39504176995402   -1.61085866174386    0.90741565781879
H           2.24749725900719   -0.96590518531804   -0.88760736676552
O          -0.31775944264498   -2.01037911095582   -0.01684467267362
H          -0.37203258737334   -1.16345912114719    0.45974170658302
H          -1.23383672096343   -2.29965506185148   -0.07672634162427
H           1.41072031072173   -2.40872270337302    0.01816379299517
N           2.05114623484855   -0.02235810170914   -1.42803742812834
H           1.03019849406572    0.05080884042592   -1.62745911071433
H           2.62107252269074    0.09027480807262   -2.25956954040128
H           2.16842303907257    0.75630029530023   -0.74577177027572
