    26
        -50.46347785  Gyration_radius:  2.4383921635 Dipole_moment: 5.946
 S          -0.16908748855413    0.45990981114892    1.26441337788133
O           0.24998953163759    1.40903795984880    0.22460951162847
O          -1.11613318151914   -0.50831625260263    0.74863206864809
O           0.98356472750632   -0.17047833498340    1.88655726767398
O          -0.88395939285171    1.29905881460616    2.37623165623166
H          -1.52192185919147    1.86179974034965    1.90221649383076
O          -1.97646572425034    2.76377043593209    0.39745930869669
H          -1.13279041629371    2.35730971130039    0.10179568442850
H          -1.85320252374165    3.71464601582632    0.36434573591320
O           1.88162501849876   -2.09659911462571   -1.39354801965520
H           2.33533489495770   -0.81688991552903   -0.80801223726562
H           1.53477921863943   -2.54027785601386   -0.58431821967830
O          -2.93244041332705    0.48293836944044   -1.13391894871509
H          -2.98623398977865    1.39284706075219   -0.82663077629110
H          -2.50366186374870    0.00227322610210   -0.41176215190168
O           0.68592434049884   -2.69139266335108    0.92207725425890
H           0.85088089017935   -1.88843741198500    1.44627074961059
H          -0.26118049223834   -2.67170957810379    0.75467633631447
O          -0.37564960587940   -0.77015732445178   -1.84618679660239
H           1.08139995985912   -1.78263699047704   -1.85590795699385
H          -0.61309196879018   -0.71162089308887   -0.90411890100237
H          -1.15615437795893   -0.43815673578231   -2.30123415240640
N           2.48543241955616    0.11947682249398   -0.24124629178916
H           3.39910304344041    0.53519807027911   -0.38714712465262
H           2.28834734339980   -0.08910889439215    0.76056605482708
H           1.70559189003268    0.77751593724061   -0.45581994292303
