    26
        -50.45332576  Gyration_radius:  2.55367134737 Dipole_moment: 4.717
 S           0.09751576298828   -0.05930180744256    1.19319643468875
O           0.90902539778165    0.95810544589050    0.51547225594366
O          -1.19028919414823   -0.20588409162534    0.50650646556526
O           0.79509798744559   -1.32803824877877    1.26253471652985
O          -0.17591898995772    0.41352529485108    2.63501926724082
H          -0.27471765150049    1.40702766763656    2.53737209627321
O          -0.33029742486993    2.86872771427448    1.92755653605354
H           0.28226113259327    2.55658931768245    1.24358813965267
H          -1.22284740047768    2.85864881430305    1.50431858052361
O           0.98516069573279   -3.35035445468661   -0.27141600002801
H           0.81474240399543   -2.61766290095577    0.39029694817382
H           1.76375110060109   -3.80812833723187    0.05270209743218
O           2.69211092594797   -0.00055061387886   -1.03342035332837
H           2.04313276235852    0.34513886135137   -0.34928350482023
H           2.94617859990446    0.76108560635142   -1.55912325282591
O          -0.98803988175948   -0.71400635777465   -1.98093389839032
H          -1.69023073303218   -1.35131357881923   -2.12975194837296
H          -1.05780180304634   -0.46132117280181   -1.00903734285212
O           1.30018183257413   -1.74977903264912   -2.17779176410464
H           1.21886314420807   -2.50006330725087   -1.45331316414582
H           0.35666005696744   -1.30867831458977   -2.18461681787030
H           1.93525047832879   -1.03295139084649   -1.75617421372164
N          -2.62512665580260    2.25247689671133    0.65547064274027
H          -2.23568749869929    1.31224632622183    0.56406937020698
H          -2.86714525531134    2.57661164956664   -0.27235525619128
H          -3.48182979284722    2.17784999449876    1.18911397562580
