    26
        -50.45332596  Gyration_radius:  2.55326553708 Dipole_moment: 4.723
 S           0.25666057271970    0.78409416761395    0.87109981637385
O          -0.83243146327692    1.00550294726384   -0.08624400384587
O           0.32497341323171   -0.63805768163400    1.22570640840718
O           1.51960579508751    1.25426086926641    0.33719235011844
O          -0.05132963073943    1.59208883195546    2.14748780981991
H          -0.66982015533646    0.98956549878082    2.65819215308850
O          -0.69347551690215   -0.44760571408200   -2.17302343101348
H          -0.76848029509641    0.08429475005165   -1.32166679738381
H          -0.96872224896797    0.15008906490059   -2.87184025209367
O           2.14749304779591   -1.92545522440210   -0.00705337402246
H           1.50033604473723   -1.37489745915671    0.52833699335842
H           1.89975518425131   -2.83992853471205    0.14579399108423
O           2.55496801506380    1.33526504420601   -1.98626704342759
H           2.10671910349077    1.42293757814883   -1.09445315008009
H           3.49011765148610    1.46280994768448   -1.81303416018149
O          -1.55845892792544   -0.24871097437333    3.09191174192959
H          -0.95900966169132   -0.80319605277536    2.56887271657373
H          -2.35466490032279   -0.11400272900406    2.52292858256313
O           1.75576060125184   -1.01992608556122   -2.31657351958551
H           0.72797909385519   -0.85093767368458   -2.31344308644971
H           2.16616345430121   -0.05875108453643   -2.26780737928167
H           1.96550510058600   -1.45203845613699   -1.38710353264399
N          -3.31716155692270    0.32127301367020    1.13086597510779
H          -3.79951174760084   -0.37657966485605    0.57870213380475
H          -2.50526680042671    0.63407843539630    0.59511417228854
H          -3.93770414263866    1.11382718593968    1.23630487548064
