    26
        -50.46411426  Gyration_radius:  2.39256004044 Dipole_moment: 2.410
 S          -0.63001918420482    1.24201324475198    0.39676504832816
O           0.53025452595831    0.79968034497110    1.17752633184953
O          -0.53565015717699    0.70217021230786   -0.97192867414513
O          -1.87752352299155    0.88171883548272    1.03136864850871
O          -0.57110971592649    2.78204091244486    0.28479226102639
H           0.19042589626421    2.93607474414784   -0.34618027038142
O           1.03853991339015   -2.39751210196193   -0.26151028836677
H           1.55412575581719   -1.55881226216798   -0.56803292411468
H           0.08612972571369   -2.28953306552842   -0.70777271141812
O           1.92955235113596   -0.08203777455647   -0.83144415690319
H           1.86180751711419    0.26355555233865    0.07974825036369
H           1.05777769940811    0.20720207179346   -1.18924395629930
O          -1.25235654338707   -1.82462555921893   -1.09859907540384
H          -1.10963824987070   -0.85090549651120   -1.17898653290870
H          -1.80892009865168   -1.93453122543761   -0.30570359364344
O          -2.29345793959884   -1.62839985080326    1.40676093153687
H          -3.13219926193020   -1.76575367331409    1.84924438695791
H          -2.19725638722260   -0.64215903458744    1.29824120943702
O           0.35184154347383   -1.66807913438622    2.02714979404612
H          -0.61117679379062   -1.82122262145857    2.02930547877125
H           0.83127759350445   -2.20967188493724    0.76556306530191
H           0.45455928274776   -0.69506003812876    1.87747551238199
N           1.37026381808297    2.91942621541077   -1.48414043633148
H           1.74270089204054    3.81708664029432   -1.76584907717924
H           0.87800308758560    2.50948623467044   -2.26842944663793
H           2.14204827253709    2.30784868438688   -1.24611978478150
