    26
        -50.46411430  Gyration_radius:  2.39247713184 Dipole_moment: 2.407
 S           0.56598013737887    0.79243907226105    1.07197210349107
O           1.27888290015848   -0.17974349381627    0.22280651680155
O          -0.53487575813296    1.39113046590190    0.31006200288160
O           0.10752442877576    0.19333450354623    2.30482462134254
O           1.56982560130515    1.91359613732943    1.42279942850580
H           2.00230905463397    2.11641102403650    0.54324679956760
O          -0.00365191379169   -2.46828464289030    0.03686690061550
H           0.61714885311530   -1.71123014211223    0.16410623782465
H          -0.57189390734937   -2.46615024837396    0.82906385125292
O          -1.45138395549336   -1.38275185907526   -1.69605737447778
H          -0.85214741640702   -1.97518232519526   -1.05769173438655
H          -0.81142275892117   -0.64381714168410   -2.02436386241996
O           0.20675564877201    0.51961191624055   -2.02937924869877
H           0.82734533454244    0.14503029787132   -1.36076644635152
H          -0.27730758751110    1.15913787773725   -1.47244542198478
O          -1.61395860827793   -1.70541645318385    2.09210692636373
H          -1.86975944217579   -2.02378450151248    2.95882956442636
H          -0.95465657584879   -0.97461460780343    2.25011510056091
O          -2.64256290683543   -0.14607215693553    0.11838009426797
H          -2.54563000075378   -0.73463572716955    0.88974651778556
H          -1.96050610554330    0.55934680011762    0.24902506823037
H          -2.09011347992134   -0.88125429428337   -1.00776169296343
N           2.64205115547995    2.16429336961892   -0.96518899651071
H           1.93997749000607    2.21569862100398   -1.69363550274721
H           3.07780753812996    1.25156732803599   -1.01589653605592
H           3.34426225460428    2.87134019038063   -1.14076491737644
