    26
        -50.46555148  Gyration_radius:  2.45634164935 Dipole_moment: 6.208
 S          -1.97323896005135   -1.01505272310338    0.43214087266175
O          -1.18792428551314   -2.04716956595218   -0.20860951419104
O          -1.71805946354061   -0.94311323343507    1.86356971976648
O          -1.84817881230146    0.28492126201549   -0.20887350917861
O          -3.49046748808964   -1.43699044742181    0.26223834296650
H          -3.43695068349355   -2.34650090961351    0.53216411318429
O           0.70031048200088   -0.27632137626936    2.27799360435098
H          -0.23838496973240   -0.58283805732392    2.09855386076855
H           0.92627251430167   -0.64599447766028    3.13317794288449
O          -0.42738434921386    2.03405832849458    1.16867027073629
H          -0.02489022729900    1.44063956416507    1.81938022435620
H          -1.12012146125626    1.48663886320861    0.73481152884412
O          -0.46252964096901    0.66325975359428   -2.44515342896911
H           0.51196973627846    1.44781115672824   -1.64483694836415
H          -1.15476669138899    0.54239104527646   -1.76123116635312
O           2.38376037708032   -0.35315199311177    0.20056917546597
H           3.16558043518212   -0.82881305275131    0.48377240741380
H           1.74928200484361   -0.37748658085567    0.95342554498664
O           0.82560351107843   -1.56210425276401   -1.86810793067206
H          -0.00150748791737   -0.21235824447665   -2.47294107428707
H           1.48025688470158   -1.25315621936306   -1.22697470812536
H           0.07670696685241   -1.88310083874404   -1.32410308206127
N           1.18577188248022    1.88747671515983   -0.89522931369008
H           0.56943634770276    2.09061867447019   -0.04510494969606
H           1.64577162777543    2.72158012545175   -1.23966404653430
H           1.86368175050517    1.16475649427831   -0.61963795624847
