    26
        -50.46555157  Gyration_radius:  2.45629034427 Dipole_moment: 6.211
 S          -1.98459162583176    0.94761093278385    0.52235971597426
O          -2.68292443621500   -0.01593150603199   -0.31612707901757
O          -1.54138153390719    0.36272640411073    1.76907391897944
O          -0.92412003496271    1.63087024825050   -0.20214493112456
O          -3.03918844708421    2.06649581322684    0.90310964483093
H          -3.57843135673796    1.57914586753654    1.51531320232083
O          -1.09999134572669   -1.88746599351676   -0.99146137999174
H          -1.72421033316715   -1.16626946201328   -0.67885681556873
H          -1.65626238053585   -2.65371751557589   -1.14130035270521
O          -0.09975927431142    0.34540072904153   -2.35742433026171
H          -0.51492024427378    0.93921260143855   -1.69207381265996
H          -0.51517283777029   -0.51563254275097   -2.20454459622374
O           1.53108422817491    1.92054601472906    0.77299059669689
H           2.00215581525301    0.98567798935398   -0.28026191574402
H           0.60630705251312    2.03584884913035    0.46779193782797
O           1.24296668676038   -2.05571434152283    0.28744226930876
H           0.35479544112077   -1.99330835539088   -0.13355946906224
H           1.35551908594222   -2.96700186345538    0.56045547365774
O           1.00073520131212   -0.11006431567360    2.36703046393993
H           0.03810394177952    0.06016285597167    2.30207478109800
H           1.15650877035893   -0.86643782309824    1.78508648514646
H           1.45256232155457    1.29761941447211    1.53831009700178
N           2.15907795369496    0.19741202464641   -1.03086372197292
H           2.09754241725213   -0.71013943683909   -0.55071251439809
H           3.04069978719814    0.30537717339777   -1.51768570197373
H           1.32289514760961    0.26757623777990   -1.69402196607940
