    23
        -45.35743464  Gyration_radius:  2.38825334295 Dipole_moment: 8.481
 S           0.41849269375215    1.73607010836972   -1.59275253728153
O           0.94925423800965    2.33130341600513   -2.76039983302706
O           1.34858004659335    0.91567018691400   -0.82504023315642
O          -0.79357358012923    0.87313114483401   -1.95979962317893
O          -0.16747926198193    2.79861413865067   -0.62421510796172
H           0.24967089132686    2.69048980429899    0.27739157079219
H          -1.28222086134857    0.57086462925299   -1.10614895695339
O          -0.04761724837174   -0.27793396846956    2.16101455668220
H           0.51127585294333   -0.80347517682013    1.54678192615342
H          -0.28482595959552   -0.85117816160073    2.89118948126066
O           1.12801340586767    2.14993368130795    1.51456291017288
H           1.64608311676236    1.67337997228208    0.84647753365950
H           0.62752023821606    1.46413736537814    1.98399195480477
O          -1.90399603078673   -0.01472692517605    0.12834123546054
H          -1.32480616167031    0.06939495873702    0.90545201928975
H          -1.84136303533449   -0.96637629339756   -0.14212732064186
O           1.41985617389503   -1.47087924014941    0.23922077691175
H           1.37918525882548   -0.62693294462532   -0.27070850155262
H           2.35348857857069   -1.66947426822107    0.33221590672570
N          -1.24047564404975   -2.45779707019145   -0.75745716055960
H          -1.28894623309032   -2.33726151427334   -1.76157931183317
H          -1.59526558330093   -3.37871621975977   -0.53427229465819
H          -0.26085088506345   -2.41823762336985   -0.49213899114319
