    23
        -45.35743463  Gyration_radius:  2.38836249248 Dipole_moment: 8.481
 S           1.07319769288141    2.03846323285339   -0.64686636691859
O           1.64343226015768    2.98676236123047   -1.52716863428001
O           1.46516774235213    0.65196117148484   -0.87414014003228
O          -0.45517038194526    2.12387530508453   -0.71772548249339
O           1.39079051678722    2.37066242088327    0.83612566111122
H           1.81243080917935    1.57549092294448    1.27038804613896
H          -0.87485581184373    1.55782254590535    0.03218143278838
O          -1.50076645870900    0.60653972647053    1.01024671083992
H          -2.05082504671894    0.10287958883031    0.35722223532221
H          -0.85933010400108   -0.03791542082804    1.35616627192463
O           0.16755173430107   -1.53471134950438    1.53852852602117
H          -0.23026114164840   -2.30045763226354    1.95492649183218
H           0.20155741921831   -1.71220601478973    0.57251563203004
O           2.40586438321621    0.10386977756347    1.54656851260488
H           1.68840847261941   -0.47766508014138    1.84354015361985
H           2.42636948786058    0.00859132842981    0.58097138780333
O           0.31285502674873   -1.67830510174784   -1.15007172617500
H           0.68526658590697   -0.76442584399507   -1.14638444588695
H           0.95541672236160   -2.21511083025001   -1.61777737927978
N          -2.54621683053806   -0.74981618381343   -1.05402261133426
H          -1.69948883157220   -1.24955835513701   -1.30884701779361
H          -2.68446041017003   -0.01646398014012   -1.73831377355136
H          -3.32693384641145   -1.39028259906067   -1.11806345427859
