    23
        -45.37915252  Gyration_radius:  2.25570774255 Dipole_moment: 3.636
 S          -0.09556278143213    0.73239713671382    1.44513963854311
O          -1.54003456683861    0.86648312415530    1.55411163324005
O           0.41521743382525    1.24262751471709    0.18749554186792
O           0.34857326595451   -0.62223045112277    1.72443642267009
O           0.53040681855115    1.65648602060482    2.57024892006836
H           0.02805988350003    1.42495981399903    3.34521873690427
H          -0.15306343394823   -1.82459185080042    0.53410604159934
O           1.43820213398650   -0.59253517062404   -1.50127399663054
H           2.26913583305585   -0.86728326244928   -1.09088534429396
H           1.13649874227145    0.12857985175457   -0.91375140581349
O          -0.42692537587645   -2.12301051157378   -0.35477274466722
H          -1.60711197451656   -1.16316627818448   -0.61728499428640
H           0.28426185334502   -1.77656157169396   -0.94143184225538
O           2.90223523628468   -0.41836575779279    0.85317658259642
H           3.09302976905499    0.50384329184572    1.03173105765208
H           2.03439992754062   -0.59238520439799    1.25801554625388
O          -0.78120313112673    1.31108101252896   -2.23537125514866
H          -0.34365591330308    1.60638463596987   -1.41581717865001
H          -0.11751733090265    0.78234961965310   -2.69138867232089
N          -2.24062583189770   -0.29207281290024   -0.68543795468022
H          -1.84093308722697    0.33565588056773   -1.43129357688024
H          -2.12281682038045    0.21047889280075    0.23805532763273
H          -3.21057064005301   -0.52912392379037   -0.86302649338627
