    23
        -45.36521697  Gyration_radius:  2.3460511513 Dipole_moment: 9.242
 S          -0.58022477583166    0.64434605537884    0.58077199485063
O           0.07509396651014    1.43301603637578   -0.46870663107866
O          -0.05524169682730    0.91111949295882    1.88662784699415
O          -0.29380343490539   -0.86383984530561    0.19095186110520
O          -2.03807071619562    0.73407921596994    0.46956115124985
H          -2.37551777989543   -0.10285911296375   -0.60125281102512
H           0.65995644972700   -1.04207004097527    0.39886402998962
O          -0.70018886935569    0.70828182303752   -2.82781351001719
H          -0.31151441908870    0.99809071969752   -1.95742445212975
H          -0.92426990754363    1.51902525764700   -3.28869540440302
O           0.71167761176264   -1.47137910371286    3.09168358262809
H           1.45670228975562   -1.61755298674371    2.50222713998893
H           0.35217631696462   -0.60698625442026    2.84562694564199
O           2.40483137188388    1.53399679345182    0.82421573865420
H           2.04516606351594    1.67613053399253    1.70678665433808
H           1.63638067136136    1.66736401953919    0.23529913627661
O           2.28182044547150   -1.07663742876806    0.60719198605238
H           2.46426162088284   -0.10602833523345    0.73678306982567
H           2.78126875783741   -1.34303384178392   -0.16701515511843
N          -2.42674229175646   -0.76926250373133   -1.50233888005987
H          -1.96286624134485   -1.63248233461523   -1.22776085638752
H          -1.82630704097250   -0.25933568284393   -2.21111428518284
H          -3.37458841203539   -0.93398249704996   -1.82446916223299
