    23
        -45.37078321  Gyration_radius:  2.26770540832 Dipole_moment: 2.647
 S           1.18465518699066    0.12826101554095    1.41266383862867
O           2.29167974523731   -0.61436998980434    0.85106410094653
O          -0.02917580606987   -0.65562144814479    1.55699189641070
O           0.93659282438618    1.37501103652445    0.69028352080224
O           1.61509402940960    0.54096276203295    2.87764961886460
H           2.53925386873770    0.73421085525761    2.75928410115095
H           0.76046943118522    1.31517751853729   -0.80049573227121
O           0.59180432166332    1.06362581059453   -1.78209502295241
H           1.11142735113123    0.16429537335672   -1.88558478227907
H          -0.45248143027931    0.78325755498070   -1.81134499201154
O           1.68748035703866   -1.19667071428723   -1.63579711100925
H           0.90530220964247   -1.74893720096655   -1.46746511895478
H           2.09447146765465   -1.06006376830277   -0.74885179435311
O          -0.69189943902885   -2.03943997693289   -0.55617140726186
H          -0.44991426046385   -1.56403003952540    0.27727106923122
H          -1.05144043056739   -2.88549545599521   -0.28565245725942
O          -1.75523687745010    0.25989974722135   -1.60833568426694
H          -1.57048495004445   -0.66990418989588   -1.38477960976612
H          -2.00309267236784    0.69224109984147   -0.73527197587131
N          -1.99679750671164    1.27063232753055    0.81060766986790
H          -1.37897131404704    0.59253560269941    1.25660431121432
H          -2.83260934981888    1.35801845182941    1.37456868847745
H          -1.50612675624668    2.15640364789304    0.83485686265698
