    23
        -45.35664086  Gyration_radius:  2.38184725195 Dipole_moment: 1.949
 S          -1.58929113033112   -0.65092628297362    0.21176099247929
O          -2.73401203160353   -1.27489093632723    0.78573921283100
O          -0.39252772688350   -0.73338470602222    1.02897838209053
O          -1.87284363519949    0.87990232304963   -0.01726922509416
O          -1.32460360504980   -1.15854888525725   -1.17715271929953
H          -0.66127868815252   -0.55962192334347   -1.78672419938447
H          -2.11882485104548    1.19526735703417    0.87533244412760
O           2.41365174750333    0.21498315089538   -1.39629833577026
H           2.15751928399597    0.87193190312776   -0.70811800658134
H           2.37298848476293   -0.65097884574514   -0.94760705980812
O           1.75810159895365   -2.00628633798404    0.01796601622251
H           0.94988460508811   -1.60686808269908    0.39040217778405
H           2.21091177153057   -2.43251855826917    0.74722436029078
O          -2.23916719662730    0.70665265573809    2.58340534126415
H          -2.86661851397597   -0.00668234956691    2.40654324455940
H          -1.38951626866175    0.26830715166859    2.70335285505640
O           0.19600222127052    0.12131239659217   -2.64205717359750
H           1.11483038856526    0.19206520450100   -2.18484356627909
H           0.31926242938006   -0.44516985811997   -3.40777336931101
N           1.13847606770349    1.69756890306024    0.47120847128989
H           0.64065232560964    0.88226336851284    0.82086169119456
H           0.46477407643296    2.25462470199222   -0.04045535361121
H           1.45162864668031    2.24099764019195    1.26552383952693
