    23
        -45.35869272  Gyration_radius:  2.35989568431 Dipole_moment: 4.217
 S           0.99393527592898   -1.68122294105655    0.29348067562918
O           0.20512105674878   -1.48113818479919    1.47233364245532
O           1.77899483380877   -0.51165597171429   -0.09497540369418
O           0.21353089403212   -2.16330553167928   -0.85841599556596
O           2.02608131663579   -2.83947269150176    0.58966520255427
H           2.32852510118831   -3.04672987035950   -0.28784758064437
H          -0.69989124101529   -1.23634227290286   -1.42883628836530
O          -1.28580673281913    0.68086151465421    2.00847816947477
H          -0.80717589866570   -0.16902739946528    2.00649811623710
H          -0.58486822291116    1.34026016594000    1.79053012594336
O          -2.78610236967113    0.33445681002173   -0.01350090136425
H          -3.38441469465807   -0.36413940764128    0.25818966945744
H          -2.21217575049891    0.54465112014219    0.80898609340487
O          -1.25753257612607   -0.43074169603936   -1.82740087544483
H          -0.55144228561043    0.28957480613589   -1.95030406204059
H          -1.93146043893622   -0.09494662240440   -1.07109498965651
O           0.81229219465280    1.06668116137082   -1.91357657811878
H           1.35774522584221    0.97704974201893   -2.69707132795569
H           1.24398739792873    0.51502189339332   -1.20713275004201
N           0.89281172432290    2.02370320542727    1.15327164050679
H           0.77966250069081    2.54174680931997    0.29038584980512
H           1.36134748053714    1.15065543162162    0.92041093217935
H           1.50683521859336    2.55405992951964    1.75792663524526
