    23
        -45.36692910  Gyration_radius:  2.22808129392 Dipole_moment: 4.421
 S          -0.01594120863241   -0.58397106888898   -1.15619870770145
O           0.13749709430293    0.47657822441543   -2.13527057380950
O          -0.89677836496128   -1.65807175273859   -1.53605730298433
O          -0.74057149920364    0.14658243110877    0.09295552889762
O           1.25574101850414   -1.03971126593180   -0.60836050849174
H           1.75489098465007   -0.26056067111242    0.52643108433903
H          -1.58269897798783    0.43679791833398   -0.31228848041006
O           1.84408299118997    0.42026883047909    1.30148527789795
H           1.53485613254745    1.31223561110974    0.76815316281170
H           1.10251208264579    0.09518394461897    1.93982738599987
O          -0.38456783466294   -2.68802725573953    0.93952358847579
H           0.49155077282742   -3.04429653851313    0.77140690514444
H          -0.70229468401179   -2.39609521647862    0.06611625115288
O          -2.53196399459307    0.62193986724460   -1.78748018605304
H          -1.69613728848582    0.78937634954486   -2.25405579406958
H          -2.72866837074527   -0.30334280567425   -1.96878819453703
O          -0.07680236930326   -0.60828263719964    2.62877912401179
H          -0.18171357232598   -1.44326065593809    2.11098340860812
H          -0.84694055737054   -0.08530772704419    2.39049638199885
N           1.14729742209892    2.30395515286038   -0.23498931377985
H           1.90607484448214    2.89274765434568   -0.55567316867414
H           0.37192974745543    2.89609458616669    0.03478836535454
H           0.83864562162161    1.71916700501863   -1.02178423418265
