    23
        -45.37675806  Gyration_radius:  2.29610374972 Dipole_moment: 6.052
 S           1.09760020882230    0.51743331058572    0.72104079690821
O          -0.21464879732456    0.95823616048350    1.20881352815233
O           1.37789581137338    1.03822949283043   -0.60415485438974
O           1.20513926951323   -0.93463273341970    0.77409803461636
O           2.13708397604523    1.11972554556609    1.72096628858017
H           2.98054027330491    0.79599146685757    1.34892922325785
H           0.13542259728204   -1.92797737906702   -0.09107815049027
O          -0.51955162500250   -0.04936575083852   -2.15102302419093
H           0.27767329503832    0.34581530925275   -1.74660883629764
H          -1.24277562705358    0.53042050409634   -1.86676046957817
O          -0.67254833109608   -2.16628641191462   -0.60016804264039
H          -1.63160146773343   -1.48828618581454    0.24987229035304
H          -0.63958512383461   -1.55102552881813   -1.37679751141938
O          -2.06932172077639    1.66773721904731   -0.58643050973282
H          -1.32802798005945    1.58246575637095    0.04942427453352
H          -2.04649421705135    2.57263150775625   -0.90101051284534
O           3.72712388077288   -0.16565962977045    0.05151978853127
H           3.16026892313618   -0.92449508508976    0.24377293967704
H           3.24827065781827    0.33310577713533   -0.62491894322843
N          -2.16336032245418   -0.75866563036693    0.90835420827149
H          -2.79789619308864   -0.18404439033247    0.35350901308333
H          -1.38228514435532   -0.11537655796520    1.22903521184398
H          -2.63892236327531   -1.19597677657160    1.68961526700584
