    23
        -45.37659966  Gyration_radius:  2.36338792826 Dipole_moment: 7.136
 S           0.47715532843375    0.58429431175677   -1.10038885628670
O           1.37651697687847    0.58958346380265    0.04520507219333
O          -0.84674249260169    1.11989423524221   -0.70905936548690
O           0.34562827642178   -0.71863557524485   -1.70276506369447
O           1.07819253390855    1.58613893798307   -2.13473629698347
H           0.36419031482258    1.68823777541593   -2.79361367342631
H          -0.02504205859500   -2.05026489058526   -0.71144051791470
O          -1.33579518843785    1.85352147068860   -3.19388759348017
H          -1.67171204217864    2.75238217427744   -3.21940656777098
H          -1.42837747349706    1.54487467597097   -2.27109632105684
O           2.09015153242928   -1.72599980941560    1.26353696544953
H           2.03501011255232   -0.93995546709525    0.68947230780144
H           2.01941016879586   -1.39142275396746    2.16112586097104
O          -0.19748672419215   -2.53717837285810    0.12581139477733
H          -0.99751714658167   -1.47958171580489    0.82126462241572
H           0.67223947516486   -2.52343176116311    0.58037194890850
O           0.55870439064897    0.65888267157659    2.54377186639939
H           0.57397751640363    1.55625420730807    2.87903697803444
H           0.93938055402291    0.70417192412948    1.63320149456524
N          -1.43885773674914   -0.55411958201993    1.20683021016731
H          -1.35666530421923    0.14543773457451    0.41365173902029
H          -0.83299322867379   -0.18338923764985    1.96689823873877
H          -2.39936779471695   -0.67969439688141    1.50621555666260
