    23
        -45.36279689  Gyration_radius:  2.33841411659 Dipole_moment: 4.320
 S           1.19341767645963   -0.26821305388468   -1.00827122116377
O           0.84473869047553    0.92212305110786   -0.26177707894377
O           1.07432461811112   -0.14618158101535   -2.42530598294505
O           0.30017133075274   -1.43418597689602   -0.50078602402111
O           2.58576631198654   -0.73930538997882   -0.61695665762192
H           2.68817715589515   -0.51238605638028    0.38204521095325
H          -0.67337920145458   -1.21464107981712   -0.58591207667405
O          -2.17175256169037   -0.72099064746475   -0.83366400505441
H          -2.62491952987434   -1.35464691828054   -1.39318167498654
H          -1.98152772831300    0.09381569130419   -1.40371313333136
O          -1.15112091481503    0.52162415124054    1.51090255652245
H          -0.45732634131478    0.80743450425552    0.88849186901407
H          -1.80280562903185    0.06110836047345    0.97099411665057
O           2.52326173622618    0.07366669603451    1.76319860877189
H           2.04800428101469    0.85929746248557    1.46472296732518
H           1.85394437031574   -0.46730387272322    2.25382815152160
O           0.44696608409942   -1.05745453594200    2.96464014112100
H           0.31764607506222   -0.86316202432636    3.89444127528958
H          -0.23281617988288   -0.53949358372301    2.47454265160338
N          -1.36493049149586    1.31075485683540   -2.26636794277000
H          -1.10715239568287    2.05383771483310   -1.62792872153841
H          -1.81737413646581    1.73017703077452   -3.06952819877164
H          -0.49131322034401    0.88412519078247   -2.57441484095442
