    23
        -45.36366642  Gyration_radius:  2.45920515376 Dipole_moment: 2.210
 S           0.40142592983176   -1.43934450641954    0.48901990541997
O           0.20300549051178   -0.55573062809334    1.60411028425717
O           0.80141508182024   -2.77700651713825    0.77514417751269
O           1.48062243669955   -0.75922244617007   -0.42268075395936
O          -0.84184012144601   -1.47926980358091   -0.39781072468689
H          -1.18259007501593   -0.51151205633540   -0.66399519539220
H           1.62711896082182   -1.46915842834622   -1.14934806444036
O          -0.03038306338830    1.99327979405370    2.14945890045163
H           0.05001780612254    1.02458927138014    1.99058721137285
H           0.20153434235520    2.12748813814184    3.06980438024229
O          -1.53759240286577    0.82919842577545   -1.02038188374336
H          -0.68690711374638    1.33174855573254   -1.00201193337206
H          -2.07220092019999    1.20793050434514   -0.28632993276795
O           0.82245059498006    1.95668402067402   -0.52622094454764
H           0.67940118793351    2.21124331201893    0.39710536421669
H           1.29844846064360    1.11518903560579   -0.50173890420830
O          -2.54004225897191    2.16275747072900    1.08246957684504
H          -2.70985741595982    3.08013008685712    0.86107817086195
H          -1.69391956251264    2.14438339582107    1.57019807854745
N           1.49612072852325   -2.80413996659654   -1.94371667286683
H           1.25219866290653   -3.32563885776149   -1.10433291742332
H           2.28079048024800   -3.24908563669787   -2.40158668101968
H           0.70078277066562   -2.81451317393915   -2.56882145122101
