    23
        -45.34995193  Gyration_radius:  2.42415979096 Dipole_moment: 5.324
 S           1.28523423337917    1.01153882360769    0.19293851473393
O           1.31853340210106    1.52125867995332    1.51721542908065
O           1.85532820499871   -0.27450988871842   -0.06605171856440
O           2.06398600890828    2.03422348899789   -0.73771802829794
O          -0.14560940927776    1.09904179760579   -0.35110183613893
H          -0.15803541997950    0.65534805252262   -1.27549562207537
H           2.41101199572030    1.53705389469830   -1.47711208023595
O          -0.10386504584567    0.05031532751913   -2.64212096823356
H          -0.85557508748863    0.37549910447177   -3.14354650866876
H          -0.30139027657510   -0.92302269150751   -2.46484061247799
O          -0.40297907319418   -0.67519704167058    2.08622429263777
H          -1.08595912160437    0.01604828818427    2.16084637005673
H           0.42494999788630   -0.21271053408450    2.23649051064826
O           0.36146234917154   -2.53381556993408    0.25631820830994
H          -0.13923978751270   -2.11395209002658    0.97633952517239
H           1.09290651939351   -1.91367448142059    0.10940970144111
O          -0.69973762293392   -2.40585962985638   -2.11705122670585
H          -0.39348450996423   -2.50022078995750   -1.16986691886853
H          -0.22627594184100   -3.08154531332984   -2.60542381264870
N          -1.61144276110298    1.82135229193125    2.20365088873515
H          -0.62706588600451    2.06624737236051    2.15180328772622
H          -2.05583170792443    2.44186984544073    2.86914902714723
H          -2.00692105032924    2.00471105322114    1.28994356728588
