    23
        -45.36335610  Gyration_radius:  2.46121844444 Dipole_moment: 2.386
 S          -0.87395843396047   -0.56481751602020    0.19728514782224
O           0.33506007689445   -1.19993718340317   -0.26158685693912
O          -1.85874201919857   -0.32798775230060   -0.81843170164434
O          -0.49104660675162    0.77433463502019    0.87510955000199
O          -1.48988809481142   -1.37335816085600    1.33679500399530
H          -0.89787732211752   -1.22579031896560    2.16891365673616
H          -0.90275792627496    1.54035172510980    0.31650763535321
O          -0.01562211099283   -0.42642542178293   -2.83664058682051
H          -0.94543841200072   -0.49504521024541   -2.58376000657104
H           0.44565240184350   -0.82103451929378   -2.08100580092157
O           0.26297050315552    2.22117148307129   -2.60979755477699
H           0.18167750200579    2.62075095108343   -3.47731220576406
H           0.26386408646986    1.24529135841777   -2.75194235342345
O           0.09589752679903   -0.78939023128434    3.20653862927393
H           0.95968157317349   -1.13265573814001    2.82450072109200
H           0.10637329675584    0.16304352047573    3.07241330448327
O          -1.58659868771206    2.37587352841869   -0.71259644751279
H          -0.88742512292047    2.47893971898294   -1.40406441954802
H          -2.15412019867662    1.65491240692341   -1.01886244155058
N           2.21039621784649   -1.60259159156671    1.85291112020671
H           3.03794725479457   -1.02486175576527    1.77612138831996
H           1.69283090986110   -1.52701650918989    0.97642016907611
H           2.51112358588037   -2.56375740872175    1.95248404910069
