    23
        -45.35484811  Gyration_radius:  2.40738024731 Dipole_moment: 3.578
 S          -1.49621620376857   -0.04648368232960    0.61375616976688
O          -1.26232176125913    0.01090279735396   -0.80386421714245
O          -0.81410164294666    0.89514107847245    1.43523993968641
O          -1.29346500518249   -1.46322546176220    1.11256488752796
O          -3.04000670577461    0.20875722502618    0.82888174176459
H          -3.51237350414742   -0.18532234293136    0.09799050584042
H          -1.07992757477105   -2.08352855118724    0.25916570870735
O          -0.72002430005874   -2.67372817256430   -0.95526290649237
H          -0.74599058045128   -1.88550164924056   -1.51453990365045
H           0.25288546034103   -2.85760722298105   -0.78296157352663
O           1.56947512142504   -0.27997375642545    0.54118832214829
H           0.88619207779161    0.10676998065817    1.09724497347445
H           1.59984650537709    0.28413332396091   -0.26845257191753
O           1.75921377851106   -2.80977361120109   -0.23513252439413
H           1.80013832426269   -1.86560533388309    0.04796935272772
H           1.94171313253352   -3.33070590345235    0.54855294546258
O           1.10549006332637    1.31492110755406   -1.54339029102767
H           0.21554554581652    0.94094926188687   -1.57078377065150
H           1.01574497135449    2.14931870429820   -1.03705086299956
N           0.54145883411806    3.28740848416634    0.29261689499778
H          -0.06107924614173    4.08649911856140    0.14074267710298
H           1.31976899654710    3.59400868191463    0.86321361851748
H           0.01803369309865    2.60264593410849    0.83231090408937
