    23
        -45.36875855  Gyration_radius:  2.41383909722 Dipole_moment: 7.340
 S          -1.12474385116223    0.78173188032456    1.01581370553493
O          -0.14669548993000   -0.20020821347363    1.47005362774390
O          -0.86521967253564    2.13420665778674    1.41852842080046
O          -2.47839913560684    0.34331318384539    1.76292310262667
O          -1.41993371934071    0.61183729241085   -0.40377181092145
H          -1.45551568790842   -1.03487053293915   -0.57797080734881
H          -2.88494856976041    1.16830798925915    2.00953932298521
O           1.26562796392889    3.26471062949410    0.20819129269612
H           1.98442822818341    3.11995109900144    0.82615885458432
H           0.45239408787245    2.98216507984945    0.66661011988056
O           1.94681593941584   -0.64574974771379   -0.29119013737834
H           1.72300967508725    0.08081298569952   -0.92304915009622
H           1.37437943185915   -0.48372184890878    0.47541933771161
O           0.96883776555927   -2.81064339141233   -1.32005106130144
H           1.49356496573276   -3.54387571590702   -0.99568382756700
H           1.45029762203394   -1.97646400900016   -1.02758625078354
O           0.90074272598764    1.34221497339284   -1.69186115395893
H           1.14392648951270    2.15221916030025   -1.20636552894231
H          -0.01578552273596    1.16065866868086   -1.43410744540633
N          -1.17986421599789   -1.94107090095726   -0.11944684015016
H          -1.97614566016598   -2.54482966375546    0.05309185978965
H          -0.75949901336059   -1.54501807976649    0.76130259974517
H          -0.39727436592593   -2.41567749642784   -0.67654822072657
