    23
        -45.37866271  Gyration_radius:  2.28105837479 Dipole_moment: 1.988
 S          -0.82587251271339    1.24433230138788    0.85339674706161
O          -2.16519778851314    0.99770508127074    0.35539352496803
O           0.03862634435254    1.82801273506185   -0.15565636671240
O          -0.24217008126988    0.04638891619104    1.45473523396956
O          -0.93293481929418    2.27952398073079    2.04363033079091
H          -0.51067536521969    1.81077415851461    2.75645282167916
H          -0.61387311753007   -1.67637706859128    1.26081270686045
O           0.39583944108060   -0.04848725324400   -2.04135392857185
H           0.27258723706391    0.80385151021523   -1.58129592316444
H           1.04681215722470   -0.51946185565201   -1.46878078851638
O          -0.68586894045335   -2.52217577336318    0.77715030418650
H           0.21964073800894   -2.74261057709116    0.53528559852216
H          -1.49569807803838   -1.83474729493966   -0.48726702693124
O           2.68003778661818    1.63389143730720    0.27729434708383
H           3.11488101119884    2.30256819408039   -0.25369885832774
H           1.71984318598649    1.78127970664791    0.16295701443805
O           1.80826900277324   -0.96392536644532    0.02286970607556
H           1.12188640660229   -0.61955501195016    0.62668234916918
H           2.49943765904415   -0.28666193407457    0.07276400084662
N          -1.81605762513767   -1.09200267775635   -1.16122879430473
H          -0.95019440307062   -0.74126899217736   -1.69554915222937
H          -2.12649348371680   -0.26272093346596   -0.57803204623143
H          -2.55282473500250   -1.41833327261507   -1.77656183065588
