    23
        -45.36965274  Gyration_radius:  2.36221620805 Dipole_moment: 6.385
 S           1.35045983976286    0.87434107855301    0.38294972051805
O           1.76979795889517   -0.32490591737818   -0.32633466310016
O           0.50840125762007    0.55352931880687    1.53720324458135
O           0.67125290544159    1.82209453033241   -0.49278188349003
O           2.65197090170383    1.55077685781617    0.91876205671991
H           2.30738834678555    2.34271058132432    1.37386264929915
H          -0.61711844883221    1.19964637433538   -1.33442147266190
O           0.81854758621240    3.23399741487999    1.83326785973154
H           0.54649736360751    3.28109339467187    0.90682617465863
H           0.46177516541634    2.39137887167227    2.14951423593255
O           0.29925864315021   -1.30114565292010   -2.09159894265981
H          -0.12683863220182   -2.06349764301123   -1.47260575924135
H           1.02641788977626   -0.90672341288128   -1.47471692907867
O          -1.30782308580338    0.57111410153907   -1.65651230127597
H          -1.71696235503702    0.22238366757140   -0.84270374909952
H          -0.41753694863720   -0.53590197792805   -2.08875684758084
O          -1.73791439301011   -0.50992944191921    0.82164283742736
H          -0.86489485675518   -0.13925026303748    1.12566344251629
H          -2.38151358318796   -0.21636106484028    1.46893482511150
N          -0.71362966099366   -2.90253563088354   -0.40258493783903
H          -1.21836045736835   -2.21297092743662    0.15593842637856
H           0.03499169459542   -3.27850440143273    0.16513881411877
H          -1.34416714113972   -3.65133982783589   -0.65668681096332
