    23
        -45.38023215  Gyration_radius:  2.3263944129 Dipole_moment: 3.138
 S          -0.03472952382991   -1.38260733056930    0.35796231476224
O           0.81576028880162   -0.33341685463866    0.91913424509744
O           0.40269514023692   -1.79003605195656   -0.95118273362783
O          -1.43961537221931   -0.92634438589690    0.36086951473478
O           0.04674668536791   -2.62111155203382    1.30163070951511
H          -0.42750747873983   -2.32782325782529    2.10512917579321
H          -1.45638250376384    0.38247820297992   -0.52369794876595
O           2.49728283478953    0.78821747515582   -0.79350626103416
H           3.29673710678168    0.26813783437511   -0.88518124191749
H           1.93809105884045    0.30432331773402   -0.14300251209287
O          -1.69387576140283   -1.45238639852317    2.91682470162192
H          -1.79333517396704   -1.07497560450510    2.01893515211997
H          -2.49003891438431   -1.95905747284811    3.09182771396392
O           0.60185685738051    0.23661736761495   -2.64496272725914
H           1.40558285993725    0.58979447945750   -2.21406614464825
H           0.51281273663996   -0.65597245105402   -2.24753081115717
O           0.43635540079066    2.30309361601590    0.72380026350966
H           0.53922608693050    1.39025541406772    1.06442844089811
H           1.28191068032360    2.49771062021572    0.30646976120524
N          -1.20809275777248    1.25354366342571   -1.07178855895861
H          -0.53967248593841    0.92696527691841   -1.85004636480345
H          -0.65885508661753    1.86443677278835   -0.40739344231282
H          -2.03295266820850    1.71815732914244   -1.43465326666775
