    23
        -45.36661683  Gyration_radius:  2.38853036067 Dipole_moment: 4.777
 S          -0.35271866576587    1.08818030476410   -0.57797960528243
O          -0.13586569440737    2.50315835924897   -0.63739958712298
O          -1.28225791784020    0.68716492770315    0.48459919113870
O           1.02202232164091    0.38865207307974   -0.21509182831130
O          -0.73651148777726    0.47167349089927   -1.84938530106560
H          -0.84860410841422   -0.91251147474424   -1.85868976416018
H           1.47867212246928    1.07874534795713    0.35873365216276
O           1.84524783445493    2.38521515691735    1.13691182256523
H           1.39070326306861    2.90353026213347    0.45332257261117
H           1.19485259804562    2.34229283363027    1.87169719245158
O          -0.87803295066306   -1.97707381132328   -1.70889724486589
H           0.13213475041369   -2.21711200089655   -1.49852559170127
H          -1.36655049428162   -2.05713217264804   -0.81607311618563
O          -1.92745407694914   -1.80366915700868    0.59882898851009
H          -2.87996407053934   -1.82392414566239    0.70884187212298
H          -1.66836908128485   -0.84217914879038    0.65667961640038
O          -0.44986208532332    2.20102153385824    2.49953771944402
H          -0.92949616117169    3.02623409773911    2.40301145803393
H          -0.82344557886625    1.60018810476219    1.82151960947944
N           1.56182019905886   -2.30186060365952   -1.05414302618447
H           1.75278815986486   -2.95508003414116   -0.30540567590340
H           1.65073145897897   -1.35365017059538   -0.68819514978209
H           2.25015964531092   -2.43186375320276   -1.78389780432725
