    23
        -45.36408582  Gyration_radius:  2.35378668345 Dipole_moment: 6.603
 S          -1.03420161616533   -0.20198761157792   -0.13752920286677
O          -0.63367721165973   -1.46444127433313   -0.67052261678821
O          -0.02705267393505    0.84069679653592   -0.20622926758591
O          -1.45914297795794   -0.35877199674429    1.33402872817710
O          -2.30664348792431    0.30015378918744   -0.81544136851289
H          -2.46077028115231    1.23540359206197   -0.39623467365650
H          -0.86044744015580   -1.09437256464620    1.76044017237758
O           2.02387535374520   -1.83853301982098   -1.37183668370655
H           2.11751447580207   -1.04132113270458   -1.92152003674248
H           1.06813318342175   -1.97509949555217   -1.30520063226729
O           1.99968265981287   -0.62578837530418    1.00185141209770
H           1.41875883157292    0.07973221924477    0.68546341112540
H           2.22059695815380   -1.14893230286350    0.19370162009616
O           0.16371869005496   -2.11859645728715    2.07994951572644
H           0.05230060186409   -2.79179987014762    1.40177977627296
H           0.98514958145763   -1.60806878197743    1.81984253497336
O           1.81767430674703    0.77440163494755   -2.23372623883976
H           1.10344074866323    0.86520368409907   -1.58053717035381
H           2.54344167317727    1.31773368959725   -1.91976801065609
N          -2.27326405502237    2.52766274412773    0.42119821021274
H          -2.57519949602446    3.42051786479490    0.05448023130002
H          -1.25943860836675    2.49102272702499    0.44293760977966
H          -2.62444920615242    2.41518416117147    1.36287266999550
