    23
        -45.37330145  Gyration_radius:  2.3115441145 Dipole_moment: 5.655
 S          -1.07593199768088    0.60286375124147   -1.06790977223906
O          -1.91881191869802    1.74321060133378   -0.74298599154643
O          -1.19687828736140   -0.41299052399810   -0.01501921654630
O           0.32423923787017    0.96459232956417   -1.26587931084063
O          -1.60176229376519   -0.02198220444622   -2.39542030196552
H          -0.85906573131130   -0.59007881101311   -2.72253520049609
H           0.95072050387726    1.41937829726124    0.22037302530523
O           0.69605909641924   -1.23841214643899   -2.72837349727256
H           0.77235379379475   -1.84965180491132   -1.97800675482694
H           0.96130900660105   -0.37493973608628   -2.36973832502478
O           0.53657286764157   -2.29424821009845   -0.15929730565418
H           0.09930325793585   -3.09922604804156    0.12342912139026
H          -0.15422462855864   -1.57317089453200   -0.10106051686688
O           1.11513149790645    1.51588734365670    1.18695898842044
H          -0.28285630268502    1.62072979894416    1.65505807249687
H           1.49460864082393    0.64983669669628    1.46266467569639
O           2.09067662027478   -0.95019672360841    1.62387180007921
H           2.99495969984536   -0.99025946568087    1.30742381430753
H           1.55849962917560   -1.48506128147906    0.99913963772325
N          -1.38090875518716    1.61459196336918    1.76974733808363
H          -1.73018718393028    1.80941799705024    0.76965724315060
H          -1.72646762940442    2.28077636902429    2.45270228241295
H          -1.66733910357189    0.65893270219560    1.97520018420632
