    23
        -45.35729804  Gyration_radius:  2.42422156353 Dipole_moment: 3.169
 S           0.80198089472839    1.03532631799494    2.00171366531008
O           2.07499306757786    0.41545660841801    2.19336298026947
O          -0.26336982605952    0.08004062039403    1.68354087472327
O           0.81204588859859    2.10342122106578    0.98407974905054
O           0.37748269762477    1.74526796789181    3.34698991131856
H          -0.46345992142518    2.14978570977412    3.15105857195449
H           1.26606682200912    1.55839519454115   -0.22081312021975
O          -2.01099210950765   -0.05049101412869   -0.37159412393292
H          -1.84583238373130   -0.98357381657362   -0.64461065735567
H          -1.49071568793954    0.06128702077044    0.44545298017732
O           1.46525860735582    0.98333013271457   -1.10576464954192
H           1.50090065284998    0.02702437776118   -0.75735643651708
H           0.57274832230616    1.07818294442488   -1.66466401512887
O           1.37814236770267   -1.25730895991542    0.15715902817992
H           2.15931496727700   -1.21834239754969    0.72254066064693
H           0.66152445119193   -0.92471283191975    0.74999752621209
O          -0.76915547528305    1.23052954678830   -2.21017521832403
H          -1.04695522742359    2.14745297855967   -2.16752076404286
H          -1.33157871655384    0.73067867967695   -1.52722537461376
N          -1.10694012196679   -2.50632493964690   -1.13306853584178
H          -0.14522447660404   -2.40588246555748   -0.82613109592415
H          -1.10020413318455   -2.67830800793361   -2.13029774918994
H          -1.49603065967797   -3.32123485780663   -0.67667420696577
