    23
        -45.36519769  Gyration_radius:  2.3677477092 Dipole_moment: 1.317
 S          -0.39766843698147   -0.07778968394487   -1.24804235769048
O          -1.23820888030075   -0.12965415320138   -0.07255787563020
O          -0.14948497978213   -1.35582211235521   -1.84637425292254
O           0.93154706147949    0.60400822777597   -0.87555421453258
O          -0.99405771608044    0.86583203723825   -2.27963730651203
H          -1.17514782415446    1.76802523846656   -1.82436682520569
H           1.45362715913069    0.03554994485528   -0.18424980336874
O           1.19270535829892   -3.14733246567702   -0.41400430839805
H           1.45517291469888   -3.89142097516146   -0.95780133328323
H           0.66146679115780   -2.56259170817305   -0.99321859875967
O          -0.22276590724039   -1.76833190879093    1.80602457736173
H          -0.09463602428412   -2.61479588484038    1.36407904731974
H          -0.76925628973762   -1.23204038302257    1.20285738333497
O           2.05425039749544   -0.87469755135308    0.82469625835452
H           2.19058420853494   -1.70898402500084    0.34533178770930
H           1.30038545026712   -1.09146431764951    1.42791732003457
O          -1.49939586987261    3.00410691751585   -1.02350997570470
H          -1.04769954525023    2.84871255269603   -0.13807759726450
H          -2.44400985356496    2.98958614741298   -0.85208365038473
N          -0.40949341238816    2.25724996527318    1.25612992374385
H          -0.74038619586884    1.30783602907900    1.09793091492128
H          -0.65773229512796    2.53260337657171    2.19777814058861
H           0.60020389957528    2.24141472227534    1.18673276625753
