    23
        -45.36483864  Gyration_radius:  2.29270301778 Dipole_moment: 3.358
 S           0.52205689530329   -0.34988912680526    1.40568831080610
O           1.82158379073978   -0.26931412590957    1.99898620951678
O           0.42139150337480   -1.27751669322429    0.30049495705977
O           0.10962297012673    1.06347971740916    0.88076690514451
O          -0.54400706856541   -0.63943502825378    2.43334329670094
H          -1.38453373416485   -1.01111901850316    1.88957515236445
H           0.72950077908808    1.31693152741329    0.13928008807814
O           1.85633868921925    1.50395533392077   -0.99331381822618
H           2.42449321665292    0.69862684100508   -0.84123373161096
H           2.41648455100173    2.26359795365128   -0.82021249238773
O          -0.33979061207163   -0.07353025095778   -2.02772161432993
H           0.34859603085680    0.59301462566842   -2.11383017095676
H          -0.06543709407113   -0.63347801287117   -1.28241519429629
O          -2.32902217388675   -1.48574626972833    0.94218203648871
H          -1.74879623015612   -2.00138736573416    0.37129206353450
H          -2.56341760363825   -0.64858850269062    0.40552051858669
O           3.13148367629144   -0.66997409936312   -0.28968494638662
H           2.90635479775717   -0.57921300625812    0.65588337331244
H           2.60606398446366   -1.41528748838881   -0.59630518015358
N          -2.62607642677337    0.68461477444529   -0.46627022312476
H          -3.49518046134266    1.00570254736096   -0.87165090774285
H          -1.96199835555442    0.49679487219016   -1.22025133146361
H          -2.23571110465098    1.42776078562277    0.09987666910689
