    23
        -45.36669923  Gyration_radius:  2.29085779667 Dipole_moment: 5.006
 S          -1.07722598805907    0.51114143299607    0.95189546964531
O          -1.94106747396680    1.55453339598906    0.51054420085176
O           0.33972290565849    0.82318102630841    0.88590388619388
O          -1.31175373876865   -0.78043955532793    0.14089162169823
O          -1.42929501530384    0.08307201695705    2.37393496754306
H          -0.61548315567189   -0.42737789276395    2.71774768214305
H          -1.00975788983309   -0.65765897373016   -0.86946291902795
O          -0.41805209538662   -0.41269211949083   -2.15192238388191
H           0.52688602186677   -0.53090737960950   -1.95588364867408
H          -0.56225548321265    0.57496523180074   -2.25539682439321
O           1.92942169977327   -0.46444813180178   -0.74948617993713
H           2.79744656619535   -0.06069285944993   -0.78973414772548
H           1.38918443166378    0.08091087540701   -0.12943411140269
O           0.80451418518206   -2.54787554677914    0.73684837136987
H           1.36008340296652   -2.04371066448811    0.12180504376819
H          -0.10552425720468   -2.36987284148607    0.46899072930464
O           0.77251325304517   -1.04545972340613    2.92186970907644
H           0.84281944560104   -1.74912121252450    2.22805255124756
H           1.29828599409783   -0.30573314219753    2.60024597821976
N          -0.81952716400531    2.19270300800342   -2.03042025944078
H          -1.45676827131699    2.63270521901632   -2.68268465571405
H          -0.02248857978951    2.80655289575951   -1.91723697886010
H          -1.29167877354348    2.13622493088798   -1.12706809208575
