    23
        -45.35842368  Gyration_radius:  2.59923517711 Dipole_moment: 5.199
 S          -0.99851719791761   -0.02412859924870   -0.03515295316393
O           0.44237325077447   -0.07505360034393    0.09709928484529
O          -1.51719755189920    1.26162458507739   -0.38695607263900
O          -1.64829862540315   -0.53913071509274    1.25808581881050
O          -1.43684714768849   -1.06499006081750   -1.06828458980073
H          -0.82500056778643   -1.86692531782542   -0.88244274998343
H          -1.47168171207599    0.09190953895184    2.04774758481335
O           0.37942510313111   -2.71019473334625   -0.49789705292509
H           0.77845495048178   -1.97762279377628   -0.00530021412245
H           0.88625159976859   -2.76900349591215   -1.34652787788720
O           1.60100928919337    2.34228674504304    0.49283641332514
H           1.68334844650071    2.67927703172163   -0.40114346978660
H           1.28189060298348    1.42461612623746    0.40764330574360
O          -0.80230547361150    3.09248462504518    1.49092030548913
H           0.15455539803518    3.03452340342529    1.29740441757524
H          -1.22516953973942    2.65819806607560    0.73077511858728
O          -1.26593557640879    1.13223015914720    3.11772441171408
H          -1.04529211580601    1.96054065701471    2.59255783979382
H          -2.09458601247089    1.31112585118641    3.56789685856390
N           1.67470292534656   -2.54326534820514   -2.87820308580756
H           2.45659239579825   -1.90576906824968   -2.79397232171455
H           0.98732910078300   -2.11892161914894   -3.48855694315152
H           2.00489843813552   -3.39381142695560   -3.31625399825713
