    23
        -45.36268375  Gyration_radius:  2.3994721944 Dipole_moment: 5.775
 S           0.35717130252861    0.57901559107590    1.52851516229806
O          -0.23776894143468   -0.69438112399509    1.20842179667237
O           1.57215179466112    0.54914816537571    2.27173906862763
O          -0.68945224554895    1.44405592303795    2.24271513962169
O           0.64444273503364    1.33749886538140    0.20585831817218
H          -0.08346821564548    1.20531013227700   -0.46907627173168
H          -1.59362044806196    1.21441386003373    1.76690507895210
O          -1.17524932004278    1.04180322068425   -1.62099785499344
H          -0.80590171515580    0.20900570377470   -2.04280302785455
H          -0.97627844184024    1.74740253303401   -2.24058893590571
O          -0.07753703147066   -1.05565504440333   -2.67476982178025
H           0.55740474279239   -1.35511330548108   -1.96596021737709
H          -0.61328651035787   -1.82447102762620   -2.87642867094995
O           1.34041372378438   -1.87750021082047   -0.64080563450609
H           2.17893314511730   -1.42953817363889   -0.42305612863588
H           0.73080913833395   -1.61509313546163    0.07069650762547
O           3.38589545637571   -0.49379585364003    0.52964681740064
H           2.81673345214339   -0.00753202830966    1.15156554981661
H           3.99504236088516   -1.00163880742749    1.06974700186591
N          -2.68984911089405    0.64760389618718    0.89008040301827
H          -3.66557745802419    0.79911773128685    1.10769145265030
H          -2.46326477677511   -0.33605337762085    0.98264827366088
H          -2.50774363641166    0.91639645623021   -0.07174401661840
