    23
        -45.36092395  Gyration_radius:  2.5081316267 Dipole_moment: 4.640
 S          -1.39074607386552   -2.26345217794532    0.43576580450706
O          -2.31194599842509   -1.47085889576906   -0.36371115427136
O          -1.12791136899663   -1.70765702419012    1.73924927933147
O          -0.15835373414407   -2.54000385751159   -0.31766358387932
O          -2.07679432082483   -3.67060925799450    0.64974220296462
H          -2.21211277086703   -3.96055277335446   -0.24690401589516
H           0.90827709438330   -1.61019603955768   -0.20880713457199
O           1.01661335460263    0.94076720263399   -1.80923478358642
H           1.38342942913661    1.69257504294824   -1.27940843003713
H           0.05651543490790    0.95864448207023   -1.64070021754321
O           1.57770724180192   -0.79733786312449   -0.09256040574603
H           1.15097501485533   -0.24722089117226    0.66858742705739
H           1.43540243590502   -0.17035174858577   -0.92875150449564
O           0.15085148673764    0.55187341572611    1.52127724643228
H          -0.45400026276951    0.91396374247719    0.84504063909800
H          -0.32901664217300   -0.24080755910251    1.85744499709925
O          -1.45232843073406    0.93124885658804   -0.64993177340504
H          -1.79780408443769   -0.00349930541349   -0.58052637330092
H          -2.22447678805144    1.47561121343704   -0.81110507061536
N           1.88785820302482    2.67256114097418    0.07501667716827
H           2.89429895322275    2.66315740590818    0.18425050116264
H           1.48522844923353    2.24304255891293    0.90183289057120
H           1.58833335747659    3.63910235210135    0.05109680186501
