    23
        -45.38014070  Gyration_radius:  2.28539933058 Dipole_moment: 4.824
 S          -0.10110549346048    0.46450797663337    1.81916747018581
O           0.97046696305687    1.40250837536415    1.53600711810922
O           0.28705979491785   -0.91030169195440    1.51936351878105
O          -1.35223689125314    0.84870317705612    1.19710224937160
O          -0.34714661490524    0.49649266466224    3.38129254964859
H          -0.71722512218198    1.36354614132551    3.51054957255407
H          -1.17557946911891    1.25058417963714   -0.48251291882843
O          -2.03037928433561   -1.67840247853278    0.37497054323755
H          -2.41729297170851   -0.80920117676204    0.53579687921880
H          -1.21153920513389   -1.65532400297718    0.89847718838473
O           1.86781113163985    1.50186883340825   -0.87875525621434
H           1.54984860998784    1.52009999680339    0.06463391191906
H           2.56278011998664    2.15890466878945   -0.93751428027268
O          -0.94555607247239   -1.26930082993548   -2.03239325845051
H          -1.48229792279706   -1.58859592865777   -1.26956358065934
H           0.42147587421107   -1.29120399839893   -1.46839503336126
O          -0.92623042053248    1.31567098651422   -1.42420172610902
H          -1.08606128092720   -0.29331806389134   -2.03233860459817
H          -0.00497631393235    1.60388294699481   -1.43291327315268
N           1.34558291695590   -1.16080232652062   -0.87907335317518
H           2.02035154879668   -1.89788143777543   -1.04853359054538
H           1.03334131553179   -1.14849895798917    0.12771856248014
H           1.73890878766037   -0.22393906380600   -1.07888467851902
