    23
        -45.36291070  Gyration_radius:  2.34721606025 Dipole_moment: 4.270
 S          -1.85019676491137    0.75702890933786   -0.64509996788239
O          -0.79472106439542    1.21023499070078    0.27171142793385
O          -2.29808419401405   -0.57354166753197   -0.29095507975784
O          -1.44398636010884    0.91051766284262   -2.02521211451843
O          -3.07871437800371    1.73708472214449   -0.43352283122964
H          -2.92507802410958    2.41015554675426   -1.08975544248541
H          -0.88244923545828   -0.70806448608775   -2.52727139201609
O           1.13281248233490   -1.53051679066786   -0.59328027009468
H           0.62915521736883   -1.50207018827636    0.29022910801757
H           1.47798301373058   -0.47868589340411   -0.67707050279566
O          -0.81954707432152   -1.62379737175612   -2.18886515222156
H          -1.54017099348719   -1.62589877259362   -1.52929733065790
H           0.40126113244690   -1.65412587971223   -1.32723974288760
O          -0.27729875402291   -1.02477648191709    1.50155610233464
H          -0.47930250211648   -0.11193652442388    1.17060943634700
H          -1.12483031231372   -1.47511239621743    1.42085334394745
O           1.68086182552048    0.87154610473781   -0.53633802020095
H           2.08574625502207    0.90313342289433    0.37488287530276
H           0.75631274627434    1.18443408836195   -0.39378327015486
N           2.34117693115377    0.62804242355177    2.03990562850581
H           3.21931934471776    0.22523119917597    2.34098533108072
H           1.59656908050188   -0.01411379860862    2.28983575116459
H           2.19318161821004    1.48523117070095    2.55712214228427
