    23
        -45.35299996  Gyration_radius:  2.40027513496 Dipole_moment: 5.337
 S           1.47239818376378    1.14672629655680   -0.29686439713533
O           2.60593391251980    1.43399044656422    0.50285649057941
O           1.35174073432738   -0.18157952891517   -0.81930912877309
O           1.42203405683079    2.15510651677661   -1.49474417302034
O           0.18025003676657    1.50230316031974    0.49506490511188
H          -0.53792032794768    1.48459001346969   -0.19062422291108
H           0.58193340301176    2.00129428099537   -1.95288452609488
O          -2.35236537504605   -0.73384298724173   -1.80878675311763
H          -2.25828009779272   -1.21433270603143   -2.63306901293700
H          -1.80293987989542   -1.24508751258366   -1.13765202789983
O          -0.69893702886073   -1.90253043959871   -0.21241247971202
H          -0.78364739237056   -1.65560536246668    0.74072152585184
H           0.10718521126135   -1.44991240881031   -0.50511663648942
O          -1.22543876370001    1.55972681362958   -1.66781487292346
H          -1.93914055797136    2.19967056350189   -1.72039761784822
H          -1.66754684644173    0.65185089390166   -1.77168028845597
O           2.33944370372405   -0.99156549078608    1.81769249719219
H           2.62767245553740   -0.10040638614948    1.58301658224319
H           2.33442205023551   -1.48512038190440    0.99366520505799
N          -0.54854748234578   -0.92581258549608    2.30085677354949
H          -0.73230521661614    0.06961399827811    2.26419668028637
H           0.46481783218987   -1.03199230041706    2.35196892549031
H          -0.94076262112199   -1.28708487353916    3.16131652188393
