    23
        -45.35869222  Gyration_radius:  2.35961496118 Dipole_moment: 4.222
 S           0.06739854752892   -0.71615322914992   -1.83911078623342
O           1.42307122943133   -0.67231456243876   -1.37853998037158
O          -0.65942071846715    0.53796976652374   -1.65333791079920
O          -0.70777129687347   -1.83081929683704   -1.26942426592967
O           0.09115740123997   -0.99578856222239   -3.39326302321938
H          -0.82252381156916   -1.20018846033779   -3.56016369113932
H          -1.00098985914982   -1.74520567977724    0.11800730158863
O          -2.15232921278935    0.78103714797837    0.45511065028631
H          -1.59652325545960    0.76534733418450   -0.36992503648730
H          -3.06604223903430    0.79792336968171    0.16477681742393
O           0.91409244752640   -1.25879903844564    2.33725149481416
H           1.47199950196568   -0.55885450303877    1.83847250117159
H           1.42815961433999   -2.06803768604667    2.31096226605971
O          -1.24650493056874   -1.51466291761691    1.12086162894619
H          -1.65910370323756   -0.58946546035929    1.04142705797006
H          -0.33442396557571   -1.41449187228070    1.66557968853984
O           2.26873107271504    0.37546126219542    0.93920313270630
H           1.77120935571639    1.22268335205118    0.84894919313405
H           2.17096644084686   -0.04008761901877    0.06229812051886
N           0.61146705117011    2.39749540593785    0.27135446574411
H          -0.20049491944963    2.51282676477228    0.86566697596657
H           0.30620054016637    1.89711022864560   -0.56069750233211
H           0.92167470957225    3.31701425555156   -0.01545910825388
