    23
        -45.37100492  Gyration_radius:  2.40258566964 Dipole_moment: 6.067
 S           0.32305698551442   -0.79952887216028    1.94833236654774
O           1.33164739718846    0.24773023532399    2.10630668742841
O           0.32528861515194   -1.31793071041151    0.58727320356602
O          -0.97944483479245   -0.38085449913179    2.41169094522587
O           0.76510813592766   -2.00648706577616    2.87571466574402
H           0.36775819491019   -1.78291836556149    3.71193436098861
H          -1.75320429862774    0.66038145318404    1.27873937427224
O          -1.87603576875576    1.15125972095450    0.43855978769494
H          -0.50123169055683    1.65680979340287    0.24489073164767
H          -2.03791581341260    0.42766096968576   -0.22053147987330
O          -1.85870647060161   -1.01174150272670   -1.05638415454726
H          -1.44485733559039   -0.96542489826650   -1.93535048150313
H          -1.17554328883808   -1.36640534944491   -0.46454290082906
O          -0.25681077878332   -0.56512026180946   -3.27311444143582
H          -0.38357635559794    0.25077402120129   -3.75887159396005
H           0.49901279747247   -0.42967404289054   -2.67488221008795
O           1.63408956254237   -0.11992533735618   -1.31156521201472
H           2.51832215115034   -0.48777099316940   -1.34698963338058
H           1.15971733886518   -0.63677517436707   -0.60542387326990
N           0.58079412390831    1.86549335097222    0.24078309694938
H           0.78362270942176    2.85749601053288    0.29259563335841
H           1.02163327516734    1.41971754580763   -0.57731256871947
H           0.95727533823661    1.33323397222752    1.08814768604710
