    23
        -45.37100581  Gyration_radius:  2.40256575146 Dipole_moment: 6.025
 S          -1.15899410666597   -1.62355212425037   -0.74882866812375
O          -1.23465521596627   -0.86652163136653   -1.99763684792953
O          -1.22467223695810   -0.73061892225460    0.40021171071066
O          -0.03276008819097   -2.52789567804066   -0.72202745942905
O          -2.46034866979244   -2.52582620490665   -0.67705130607836
H          -2.18147299181123   -3.32587778000364   -1.11218368893877
H           1.44598585113314   -1.69919674828906   -0.41410601198887
O           0.89755918209327   -0.48226462044466    2.13060190344042
H           0.80670358203246    0.43811776368568    2.43152201814299
H           0.04818119705463   -0.70666005229791    1.71691630650788
O           2.02990012903236   -0.94161302004002   -0.19735202205522
H           1.40508787018792    0.09922241041598   -1.03948191300730
H           1.80525629895995   -0.75092220334209    0.74995348772301
O           0.47720043368525    2.24213466058595    2.41836890460449
H          -0.10345945162585    2.21434040055472    1.63768886710902
H           1.20208270044634    2.83336573202640    2.21144441796704
O          -0.99657286358830    1.84256562287526    0.11773961458121
H          -1.13698562284643    0.86815899783647    0.26556774553114
H          -1.87185751957466    2.20901922824098   -0.01662898593621
N           0.75797602534454    0.73937439712166   -1.66072578523199
H           0.31240560310311    1.46159763172568   -1.07553364985645
H          -0.03851263836147    0.09553748779797   -1.96693287808310
H           1.25195253234180    1.13751463241615   -2.45152573963668
