    23
        -45.37100579  Gyration_radius:  2.40262967194 Dipole_moment: 6.033
 S          -1.12468405776110    1.22819116366435   -1.32946881184037
O          -0.60945090627419    2.36150471258948   -0.56232333273907
O          -1.40607361977037    0.09822703033420   -0.45433952678594
O          -0.28205447087293    0.89891551148613   -2.45574007105066
O          -2.52183616029217    1.67539760166417   -1.92996032801553
H          -2.27417619806625    2.05961386081730   -2.76557229043856
H           1.12959627854739    0.04182967586321   -1.96674954554252
O           1.74021399450286   -0.42156915492970   -1.35489015257515
H           1.66799830734855    0.49210496202352   -0.19627590855745
H           1.24356520707431   -1.25015522139311   -1.12911797406475
O          -0.58815500015192    0.07264616923319    2.01228300584752
H          -0.96154360283801    0.06243797011799    1.08959642338110
H          -1.27102953407236    0.46264668300221    2.56001984119397
O          -0.01347107513420   -2.26204856453146   -0.68372521026940
H          -0.69312721818399   -1.56930969070784   -0.71625094518573
H          -0.01733987297718   -2.58933888242513    0.23213092774500
O           0.04436118614596   -2.61467680607923    2.06464549864182
H          -0.22248597781066   -1.68447843645705    2.16921866141201
H           0.89709777905334   -2.71424412564016    2.48970305617700
N           1.41875394628639    1.23996022186723    0.57395826868449
H           0.66730635301553    1.84945185354873    0.11961541454019
H           2.22575096213043    1.78115531915812    0.86332509451021
H           0.95078370042255    0.78173814678997    1.36991790479700
