    23
        -45.36070139  Gyration_radius:  2.41884900482 Dipole_moment: 0.502
 S          -1.10467163480659   -0.85629320904862   -0.01429297118020
O          -1.31545356252389   -0.17279008688810    1.23315124717465
O           0.16334600211478   -1.48945420885265   -0.19647388578079
O          -1.36568684957892    0.14243708698471   -1.15100144398137
O          -2.22026660104345   -1.91870657749088   -0.19972088431890
H          -3.05891456700331   -1.42609187936798   -0.02610930593077
H          -0.55073145378317    0.09956713907417   -1.82871073043400
O           1.80899636107829    1.91951093418805   -1.20869531883740
H           1.52777038203191    1.75036240028174   -0.27176482298757
H           1.51926709982334    2.80900164174226   -1.41628881561996
O           0.97540018299111    1.39763275640726    1.23931216879905
H           0.10763681724182    0.98011296168402    1.32684292040746
H           1.61207369439939    0.70362990777546    1.52094329025591
O           0.70581254611014   -0.06059678097619   -2.49104754741441
H           1.21155855217618    0.71555141307834   -2.11510657392324
H           1.00725230222081   -0.83169147731013   -1.99334273955397
O          -3.86441795581769    0.01845117357180    0.38843642629432
H          -3.14371104661911    0.22251844993049    1.00592186527067
H          -3.78066098626531    0.64126230922273   -0.33897411023052
N           2.39459614697742   -0.89388461652090    1.66372870481986
H           3.31303814297812   -1.05715597272786    1.27091130546265
H           1.70904020130572   -1.32269269370525    1.04706735471263
H           2.34872620599337   -1.37068068106664    2.55521385699913
