    23
        -45.36427712  Gyration_radius:  2.28843208877 Dipole_moment: 3.485
 S          -1.06836244278149    0.74970109021362   -0.90558271401808
O          -2.06130978171666    0.15632448983182   -1.74538528013224
O           0.29705099063361    0.44110146540636   -1.26171853878269
O          -1.29513105505199    0.28141004475898    0.56930128558333
O          -1.25891925424160    2.24845210250214   -0.79519775587304
H          -0.36133893717542    2.61967004939539   -0.40761967058360
H          -1.16679793587058   -0.71408528449588    0.60840528927530
O          -0.61488041269311   -2.04570114296285   -2.17701874787127
H          -1.32109189802163   -1.38049103297678   -2.26914768870420
H           0.19771822722941   -1.54051217389167   -2.28446273790684
O           0.99842060137097    2.80935967805364    0.10877765384734
H           1.46361121535084    2.18088691010888   -0.45441090583720
H           0.97862346275838    2.39496046301638    1.02049237948726
O           0.76830215571928    1.37198563947643    2.27586905064259
H           1.22786880493805    0.55834085002253    1.94865939142327
H          -0.16946765488918    1.16316823725030    2.22954081840962
O          -0.96607376154136   -2.27470554802637    0.41665119475912
H          -0.78317670600033   -2.33494202780245   -0.55945928837770
H          -1.79435113382132   -2.73740879478322    0.56238540336774
N           1.71001918479304   -0.79370126977182    0.97501489920949
H           1.39359196123893   -0.45225355495852    0.07018241402534
H           1.15259374529950   -1.61130036241459    1.19267188053668
H           2.67310062442497   -1.09025981793590    0.88205165749143
