    23
        -45.36765335  Gyration_radius:  2.30453329339 Dipole_moment: 4.077
 S          -0.86847104777951    0.62689674578123   -0.86057499761015
O           0.06793805034202    1.63719104647132   -0.38172818997548
O          -1.40538968418826   -0.17658266149910    0.22240488161206
O          -0.22061518337922   -0.21376124808850   -1.87947684669956
O          -2.06686778051882    1.34505771904347   -1.54340173859893
H          -1.62396239159348    1.87388185833180   -2.24039134474582
H           0.76412734243899   -1.13356380609098   -1.30728325358651
O          -0.10698811950430    2.34584866607468   -2.97777212651751
H           0.25949445782271    2.44725585265373   -2.08541802103768
H           0.16592865657569    1.46757730254666   -3.26555567763198
O          -0.57597472021685   -2.62703712930264    0.68179787581348
H          -1.06008422227568   -1.79102172941465    0.48273856113004
H          -0.47695640775971   -2.66268325089055    1.63546385456768
O           1.37705669535578   -1.68717674981583   -0.66707702412199
H           0.70487251564544   -2.24760763933042   -0.14666055326114
H           1.71829175865738   -0.92349221112168    0.02696299352535
O           1.86623519654935    0.18924561967319    0.87836214412621
H           1.34099062137648    0.87651489280040    0.40472284778355
H           1.34545898051200    0.03902175785861    1.70740218324374
N          -0.04695997800538    0.06804860390362    2.74690619740932
H          -0.03293260754033    1.00975727948558    3.12005329184783
H          -0.41172756964646   -0.53365877984575    3.47554845393630
H          -0.71346457287119    0.07028787076587    1.97297647878636
