    23
        -45.36765338  Gyration_radius:  2.30451346966 Dipole_moment: 4.074
 S          -1.15857461075192    0.08588846694747   -0.73344351077739
O          -1.06857607655026    0.79621541154589    0.52913433226323
O          -0.84357407943330   -1.33075812115030   -0.58930721903418
O          -0.28601040113980    0.69208898661302   -1.75111812177189
O          -2.62362379153829    0.21964937215255   -1.23727469090701
H          -2.60554582724792   -0.29546284819395   -2.07153302076577
H           1.09194810125961    0.85747518780056   -1.28485048134797
O          -1.65566225712300   -1.28490230055151   -3.16059586191486
H          -0.99747958373672   -0.61821234841189   -3.38653995353905
H          -1.29861151904835   -1.74282948003448   -2.38363506205469
O           1.97159758110893    0.88358565902383   -0.72141257574542
H           1.93762753758720   -0.07712098506654   -0.21431982849962
H           1.75662570303578    1.57646643895566   -0.00696144432475
O           1.57534851851302   -1.27016610951509    0.44168976140285
H           0.71831180313435   -1.48787464093593    0.00500108457276
H           1.30780090352428   -1.06397799630132    1.37283635353084
O           0.96780623253672    2.35145496670381    1.11021582452633
H           0.09848666732777    1.92930029738309    0.91259051734998
H           1.17758709837785    2.12751081304768    2.01927555594628
N           0.23399623709734   -0.62309611177475    2.66614451487758
H          -0.41691782316088   -0.12950917151913    2.05302203794160
H           0.32310261258802   -0.09227479725854    3.52426585805122
H          -0.20566302635315   -1.50345067945493    2.90681593020807
