    23
        -45.36794696  Gyration_radius:  2.2455328402 Dipole_moment: 4.600
 S           0.28069568466127    0.23644033246260    1.33292757603889
O           1.37193385123807    0.27522458106234    0.37147705797523
O           0.57689419230510   -0.50080653068976    2.53230396022363
O          -0.96865920340579   -0.15151511116985    0.68037453581261
O           0.04374171455056    1.74269235454783    1.80779493621760
H           0.55588806995002    1.78299824783240    2.60934539539558
H          -0.85960946772143   -0.69935968353618   -0.76945764652764
O           0.61487463175632    1.20658316506214   -2.01946037502650
H          -0.11042591296571    1.81283878795251   -1.70638615975849
H           1.14688373600327    1.03522637086393   -1.21594195650428
O           0.06097305497695   -2.83437066602991    1.39049994442294
H          -0.89410301093835   -2.80045622881904    1.30566057146314
H           0.30341395649798   -2.07435420658798    1.95524404726890
O           1.46452403695091   -2.16364941712761   -0.76224574773219
H           1.78172495941815   -1.33551629687760   -0.35488856882494
H           1.06271541972002   -2.66437743313532   -0.01774309928813
O          -0.52491901746290   -0.97049786000739   -1.69038322706417
H          -0.05919212590425   -0.05265648218535   -2.02171203932998
H           0.29863394948929   -1.59277289149015   -1.45370003628670
N          -1.36334425983782    2.38639771279531   -0.70334983540564
H          -1.06147272536355    3.17977173654954   -0.15188779259536
H          -1.42880504149812    1.59578035776102   -0.06580326922982
H          -2.29236648236466    2.58637916082803   -1.05266828121524
