    23
        -45.37543834  Gyration_radius:  2.2640283984 Dipole_moment: 5.716
 S          -1.02325519961909    0.45813576328231   -0.94946678887363
O          -0.96975819752040    0.86154872503408   -2.32854366855447
O           0.12928386589215    0.96221237775224   -0.17988236072542
O          -0.91355635130951   -1.11861511882816   -0.87894294728274
O          -2.27021391823358    0.72170749824423   -0.25045591186317
H          -1.97037525690857    0.07359836712447    1.05908238757393
H          -0.02128448324406   -1.39390040269739   -1.20641849851104
O           1.52904237481953   -1.69140509112159   -1.63441741912635
H           1.57331820780531   -2.27642710812760   -2.39308564201267
H           1.71620294317166   -0.77692690746789   -1.98616896179423
O           1.64997925502136    0.76519800743728   -2.52577566210937
H           0.67790371185064    0.86297282186948   -2.64540674963555
H           1.84648697413097    1.32328403123057   -1.76808521481985
O          -0.11450360419004    1.95011856441754    2.28245903724097
H          -0.03442654194159    1.79550742140609    1.31526714199915
H           0.77678791448858    1.88612712684763    2.63187084119309
O           0.93170884022570   -1.08455104344616    1.28513577466585
H           0.81139314452286   -0.28336199007200    0.72968007090986
H           1.27453295391952   -1.74940410462790    0.68203946188600
N          -1.53572099202610   -0.27164591727920    1.99248429555761
H          -0.72568833869722   -0.89027728840767    1.76266040199620
H          -2.21700086498744   -0.72071628813119    2.59445219799047
H          -1.12085641716453    0.59682057554572    2.41151822428857
