    23
        -45.36368314  Gyration_radius:  2.39570935257 Dipole_moment: 5.234
 S          -1.08936494148868   -0.52835015444118    0.82563768532853
O          -0.82213003434015   -0.45578928339372    2.23841871039223
O          -0.88797347963737    0.77159474316180    0.16721008893696
O          -2.59617910307082   -0.90707456809495    0.59857018487916
O          -0.32384226402563   -1.57384536067268    0.14743790670116
H           0.15830674592977   -1.48256186540608   -1.17414145039101
H          -3.08601781449673   -0.23300794910885    1.10688356899206
O           0.61442897603122   -1.25605772463960   -2.11056518067819
H           0.13002004148142   -0.39565290710685   -2.39458376845781
H           1.57606391604557   -0.97439428212084   -1.83839262626985
O          -2.89509924119929    1.23915384225617    2.14060969937389
H          -2.45583591736830    1.80645097794069    1.49947629116296
H          -2.17733491024550    0.74608115699866    2.57300407631037
O           2.85666851875822   -0.50506443406201   -1.20888251591143
H           2.52454690178592   -0.14324546641410   -0.32342944518984
H           3.43425395342523   -1.24214328902670   -1.00193388052740
O          -0.59976818258923    0.95200929621029   -2.38977772846166
H          -0.05626987241110    1.73001515401313   -2.53130770555719
H          -0.82567163413485    0.94057830051717   -1.41998022820995
N           1.80720198103198    0.31221997210979    1.05470651947640
H           1.47204693084464   -0.50270451215089    1.55858321910293
H           0.95963519283251    0.79269399284905    0.76070849687619
H           2.28231423683816    0.90909436060550    1.72174809215148
