    23
        -45.37612560  Gyration_radius:  2.33604670192 Dipole_moment: 4.964
 S          -0.99520254956174    0.71578595929802    1.60218209359708
O          -1.53212794715577   -0.25606553746899    0.66396218090143
O          -0.36147556783275    1.83052458193765    0.90192338686051
O          -0.13013016749126    0.14032457842693    2.60721404307563
O          -2.24578172738917    1.31360969245626    2.37123897563279
H          -1.83952297532203    1.68161646554708    3.14916094457382
H           1.23248681030157   -0.72798574143044    2.03852943236504
O           0.52753102630982   -0.38653065366930   -2.47847567565382
H           0.68067875205038   -0.25012894729563   -3.41420916909851
H          -0.39635803309549   -0.06679221868425   -2.29420117110730
O          -1.87900673544570    0.42843709500582   -1.82873394582554
H          -1.79155225705022    0.29624190702404   -0.85367817091773
H          -2.64470263520278   -0.08810691614781   -2.08764916722254
O           1.88237627895589   -1.11078426667171    1.41029671935527
H           1.36600904820151   -1.77526892519793    0.90308507222874
H           1.92350574163116    0.01323361876173    0.38649554386408
O           0.10448769083534   -2.21944383367599   -0.24702606409170
H          -0.59202814879449   -1.65050267487101    0.12918376943242
H           0.28971305170372   -1.86226234440072   -1.12343995184619
N           1.68848216644401    0.81250764183271   -0.31100481274063
H           0.86903928401608    1.33134896100683    0.13563589386848
H           1.36677047222556    0.39640272384554   -1.20723952548725
H           2.47680843167121    1.43383882437689   -0.45325040176367
