    23
        -45.35933476  Gyration_radius:  2.33494770721 Dipole_moment: 4.757
 S           1.07178977267594    1.22068651517394    1.21116093539469
O           0.33620366118979    1.48366648241103   -0.00819472658791
O           1.81906469241648    2.30923726407786    1.72258501598666
O           1.96544297157389   -0.02969887091769    0.96309668538226
O           0.09276055784709    0.68754253458920    2.27452300252617
H          -0.08366321188453   -0.27877637954592    2.03994296622881
H           2.34450201000956   -0.02803833809848    0.01891198943100
O           2.75042692084029   -0.04165732051064   -1.45438960967647
H           1.86506589225499   -0.13302812283623   -1.90145536324916
H           3.09223827624269    0.81785483591633   -1.70989953862528
O          -1.54135772849227   -1.56996641399289   -0.77756290101660
H          -2.25645122250322   -2.18522834937959   -0.94531433424138
H          -1.95849356445582   -0.71252772971657   -0.45928686837675
O          -0.14998059706165   -1.74563067033343    1.50877130735461
H           0.78100326873201   -1.87650140191985    1.30305027422903
H          -0.63613031001901   -1.76738496739199    0.65298481382705
O           0.25851890564530   -0.00597083254006   -2.25524579876962
H          -0.30685828509691   -0.73111728698696   -1.95134211563589
H           0.15186122456704    0.68823656790685   -1.58121779300901
N          -2.39655807030828    0.72283678154042    0.22070423833749
H          -3.07081891756420    1.32141314910385   -0.23969052844969
H          -1.48614935514694    1.18163853735839    0.16596352411201
H          -2.64241688146331    0.67241400609696    1.20190482483194
