    23
        -45.36047707  Gyration_radius:  2.34343936887 Dipole_moment: 3.222
 S          -1.37755820952595   -0.94062390885529   -0.70892670837229
O           0.05246923331873   -0.84396651802451   -0.94183362054605
O          -2.17229341217482   -0.30692784623002   -1.69898916250163
O          -1.67723480962554   -0.37614804302138    0.69782840891783
O          -1.74745621477728   -2.41884991971773   -0.52800896260952
H          -1.27446807104196   -2.68175240356716    0.31767331128486
H          -1.63793964376359    0.65558387082588    0.65761264530553
O           1.17672829937989    1.99262648732108    0.75949400897841
H           1.31485854280299    1.12617850790689    1.16696872983911
H           1.43964625155888    1.89521007578645   -0.18540508449149
O          -1.39646737140237    2.09602415954876    0.41748657553526
H          -1.51661807844289    2.24234235011370   -0.52370580584795
H          -0.41407961187782    2.18126019202079    0.61210758182026
O          -0.52867502321172   -2.69398658139061    1.73626399290750
H          -1.17570234647968   -2.26964274602744    2.30632897673991
H           0.23144235371226   -2.07533662852870    1.69834682338575
O           1.42608366097778   -0.84737004184313    1.25717657680147
H           2.30122726009893   -1.20439391002501    1.09285630436563
H           0.96633165342903   -0.81780654565254    0.38322489972666
N           1.52758360913332    1.45384697943777   -1.88614365039148
H           1.03960766838160    2.02240169537423   -2.56700075255368
H           1.00817140514059    0.58298373299552   -1.78725956343169
H           2.43434284438687    1.22834705155294   -2.27609551484882
