    23
        -45.36047700  Gyration_radius:  2.34353286471 Dipole_moment: 3.224
 S           0.18095522355431   -1.05393410811447    1.46388220895600
O          -0.40347602756113    0.24345031094636    1.17449309041855
O           1.40627040062932   -0.99404188549254    2.17683617376993
O           0.34331901971250   -1.81877070353716    0.13120490388273
O          -0.86588153947709   -1.91544688482176    2.18266678060340
H          -1.58431589011974   -2.04379828968512    1.49321491475236
H           1.15879576502199   -1.43600835827382   -0.37472256817651
O          -1.80484031105123    0.24464025263821   -1.00700343740752
H          -1.26983184289087    0.32239459455577   -0.18010477583417
H          -2.48809938707953    0.91595630000185   -0.95384872179183
O           0.74555057640199    1.20413313702284   -1.98111083872478
H           0.82979604265884    1.85784858710056   -1.24830920885306
H          -0.14492680754680    0.83310953091953   -1.90846419883141
O          -2.42309670175889   -2.15946660436752    0.13239346994242
H          -2.30884901288379   -1.33080651590778   -0.37965830096059
H          -1.93014031151423   -2.82851997708668   -0.35035227038544
O           2.25928809612901   -0.65941193873481   -0.98889782401230
H           1.76058710046266    0.05992374991933   -1.48300356013807
H           2.73410184027093   -0.23721790691933   -0.26917003125575
N           0.96716855524676    2.63971422206236    0.32173194595050
H           0.50874821041784    1.89329147951237    0.84199819925726
H           0.44308798911773    3.49144534568745    0.47988190993966
H           1.88578899225838    2.77151565257214    0.72634212891612
