    23
        -45.37304284  Gyration_radius:  2.28355078858 Dipole_moment: 3.001
 S          -1.37167341232699    1.04069008089604   -0.30626595974847
O          -0.86064385361807    0.87964109868871    1.05365481241308
O          -2.11484288652628   -0.12086260971111   -0.74472055116062
O          -0.33914695239725    1.44221721154030   -1.24433070449295
O          -2.40247412630091    2.23816315244662   -0.22229065093099
H          -2.78534416339602    2.22103761648593   -1.09281448585234
H           0.53372081656128   -0.08032121716858   -1.50707978673412
O           1.77668805625894    0.20843384519629    1.12463070206287
H           2.30923555022823    0.89287747510236    0.68608327335541
H           0.90468280594319    0.63380297119450    1.20754561498605
O           1.04777422332098   -0.87826743714045   -1.29556265412710
H           1.52031485081513   -0.64723022040269   -0.47459022488913
H          -0.11420742796589   -2.12426022449563   -1.05940701949281
O          -0.92678201593054   -2.47382164543972   -0.61957783475256
H          -0.59853479296665   -2.12293394585873    0.76361445605266
H          -1.57969856157612   -1.76036019538601   -0.78911411290155
O           2.21072323143096    2.20071677048717   -0.67908882905751
H           2.66458762672216    2.12826501144069   -1.52028766816442
H           1.26471946377918    2.06411493474101   -0.87659163781697
N          -0.34521360176411   -1.59592280819505    1.70843921745418
H          -0.75401412253149   -2.02851950972582    2.52945946488315
H          -0.70895833732376   -0.60964104932355    1.55929452348655
H           0.66908763956332   -1.50781928537398    1.79900008541973
