    23
        -45.37026573  Gyration_radius:  2.27618150044 Dipole_moment: 5.653
 S           0.26310755982477    1.11494833894141    0.69531579473134
O           1.07190458820267   -0.10500475372910    0.77413968777154
O          -0.30625558476016    1.44950937622419    1.99695309115955
O          -0.80443867938877    0.94177790832441   -0.30032829299323
O           1.16480937223044    2.27900215320291    0.26051261896334
H           1.44039017255078    2.13121787712819   -0.70386407907229
H          -2.11455241258095    0.34996129155177    0.54714989086376
O           1.96206645265614    1.76230331056371   -2.11636362678857
H           1.94818102987108    0.76227100660356   -2.09052304466224
H           2.88425908553791    2.01449581846833   -2.19961049222899
O          -0.75648098506892   -1.42477428878728   -1.61091252474527
H          -0.78556836269375   -1.97314443836044   -0.81990237719910
H          -0.81919201920584   -0.50491015690325   -1.29324118014554
O          -0.60911549416391   -2.01541022228238    1.29557403834488
H           0.08643680597174   -1.32889488078037    1.10521000471333
H          -0.19307305163886   -2.65149466391252    1.87982587922686
O           1.90316362739976   -0.80572154150272   -1.67974616756905
H           1.04196887917059   -1.16266330983333   -1.96765344016878
H           1.78298987470048   -0.65012131160459   -0.72350366681777
N          -2.32177872131507    0.01342291616033    1.52391452284538
H          -1.61601201198995    0.66067986486314    2.02719413939902
H          -1.93268974591658   -0.95216969439400    1.58611320404736
H          -3.29012037936658    0.09471939005844    1.81374602032222
