    23
        -45.36241097  Gyration_radius:  2.33060554139 Dipole_moment: 1.564
 S           0.77969758727362   -1.30271244074268    0.93262727335857
O           0.20610606041656   -1.72570100525037    2.17564296568438
O          -0.02170852028486   -1.63655120250220   -0.24244243865057
O           2.14109446499790   -2.11311424527955    0.76372338203359
O           1.17777744959160    0.10392604760689    0.89634453899518
H           1.46832338535159    0.69404015670710   -0.35896338207282
H           2.00323464647596   -2.88619807824691    1.30142318912229
O           0.94871710195054   -1.04647551441682   -2.56672956632825
H           0.18910172592547   -0.96454817982647   -3.14848501115331
H           0.60586820097002   -1.42879973438964   -1.71796915346291
O          -1.93478025245446    0.25882889286874   -0.29282932662742
H          -1.36311345442672   -0.52718321597858   -0.35435242029907
H          -1.90875150446280    0.49072656492191    0.66783417394254
O          -0.73374487034705    2.17553450379270   -1.50002408151438
H          -1.28071843952128    1.43026358424264   -1.08149026870157
H          -0.87024775105773    2.94748064086557   -0.94864546436865
O           1.53081535375458    1.09831740539009   -1.33793643871979
H           0.63699944690448    1.63418048338656   -1.44435489753444
H           1.42131335300639    0.27927024333513   -1.94848379751992
N          -1.38618732777061    0.65814530700043    2.30704708148412
H          -0.66286102878593    1.35810238193156    2.42142006073836
H          -0.91898014917702   -0.24367700236272    2.39060592475665
H          -2.02795547842691    0.74614439707491    3.08603767682780
