    23
        -45.36508016  Gyration_radius:  2.37168914518 Dipole_moment: 3.942
 S          -0.78685647652139    0.55899282458203   -0.16721094456099
O           0.26692909839219    1.47095929713544   -0.53969091411149
O          -0.27744089127059   -0.67549036398709    0.40083369410186
O          -1.69726084591457    0.24222202924946   -1.33413794093920
O          -1.72629973587187    1.23645689677196    0.82905989223382
H          -1.19043007808470    1.99497957541937    1.28123855460732
H          -1.24670062044389   -0.41317672821483   -2.06925611669961
O           1.70268794880568   -0.42640531695319   -1.77983600932225
H           1.80348486986018   -1.02836334826115   -1.03786725942801
H           1.34255949091705    0.39844712563784   -1.40684677826838
O          -0.54503772108444   -1.32689111161981   -2.86432817777954
H          -0.63326745449990   -2.14336427856718   -2.32131713149024
H           0.38387539478378   -1.02548973006903   -2.72414156295252
O          -0.75085777476876   -3.01639227993663   -0.81804351905907
H          -0.55391290042534   -2.23955066185057   -0.25818444028566
H          -1.61289972188146   -3.33488391068135   -0.54535448680940
O          -0.09442193110177    2.89651990472264    1.77747233361363
H           0.33838304725048    3.02246196260273    0.92400285179802
H           0.43788883505977    2.19094969547098    2.23699776180725
N           1.12812117924634    0.66535663525248    2.58219681681196
H           0.89534414060503    0.28595165071514    3.49153629397660
H           2.13078973463027    0.58869733064272    2.46456638757998
H           0.68532242225052    0.07801280194405    1.87831071516147
