    23
        -45.36241297  Gyration_radius:  2.3311178472 Dipole_moment: 1.619
 S          -1.26725237352132    1.07252971746823   -0.64809908384485
O          -1.51682669054302   -0.36248858145391   -0.54051952807522
O          -2.04106272118570    1.87637513262549    0.25105594482046
O          -1.72651484958125    1.47579775131730   -2.11954821796176
O           0.16994146824509    1.34321702990165   -0.61656815607110
H           1.04812968678630    0.40970579163761   -1.22029644316072
H          -2.57761299197494    1.87746092401230   -1.97804352266266
O           1.64398414373668   -0.39626716742018   -1.56893059413795
H           0.96046987882852   -1.05255482628548   -1.96512263014287
H           1.98207531355505   -0.85731469096957   -0.69122717302307
O           2.21523558578615   -1.49372515644867    0.61864474919015
H           2.81779238961515   -1.01038089367055    1.18599576090338
H           1.30297760625020   -1.43255107643880    1.05875118342021
O          -0.28596215639087   -1.92314515777034   -2.19718835159382
H          -0.25757892061566   -2.78152098297836   -1.76764953843916
H          -0.89396272345042   -1.36149457348012   -1.65072433058263
O          -0.11253127671841   -1.12540539378925    1.62808714695362
H          -0.72814698999981   -0.98426682892228    0.88681681426922
H          -0.07338074432078   -0.24170095173176    2.06934252811456
N          -0.11934309231511    1.46524036810567    2.34220670974587
H          -0.90310145672625    1.67689323367246    1.72630822682751
H           0.68025976628006    1.94828490138958    1.95048614508643
H          -0.31758884171926    1.87731145125281    3.24622236036998
