    23
        -45.35998987  Gyration_radius:  2.4321741976 Dipole_moment: 6.615
 S           0.16520483921477    2.01702497592403    0.00967153428927
O           1.32208657894685    1.65830052651958   -0.77452814762258
O           0.13174414352233    1.38366673867841    1.31687868045384
O          -1.08692507618139    1.77987804779504   -0.72244085876692
O           0.23092829561291    3.57685359248728    0.25430038061394
H          -0.54386241308481    3.73722366653967    0.78374756182678
H          -1.05921612649610    0.44443707850568   -1.28026354846642
O           1.32432053446004   -0.20274162026385   -2.75360672242540
H           1.93588738249779   -0.66919787673405   -2.13758974679883
H           1.41516966482605    0.72494830999385   -2.47942835120644
O          -0.84384181027608   -0.55023911004855   -1.53686607253794
H           0.01094024852821   -0.48076812225058   -2.15624069114201
H          -0.49780278712926   -0.93515366071326   -0.62665089635299
O           0.05273228544753   -1.14517761222616    0.73604879962018
H           0.14376547159029   -0.20882932335786    1.05088850693512
H          -0.66001244965614   -1.53281184370239    1.30238922505015
O           2.57558446600202   -0.79668095907069   -0.48550060237216
H           2.41385389523653    0.15457618282188   -0.37907110352475
H           1.93713630687439   -1.22922617891491    0.09449083802037
N          -2.02957622914955   -1.90455886744424    2.28379587516943
H          -1.88634310903814   -2.66538351764934    2.93555688897020
H          -2.86619723224433   -2.09882648428451    1.74824908844615
H          -2.18557688964546   -1.05731392262430    2.81616937169815
