    23
        -45.36973550  Gyration_radius:  2.45062333737 Dipole_moment: 5.154
 S           0.93467271361089   -0.07883901055197    0.97580178988371
O           1.85441618119590    0.26744392092085   -0.06858946978252
O          -0.00902420418606   -1.12769011697964    0.56306001152974
O           0.17426293395838    1.08109273091967    1.48299442440965
O           1.76131678284283   -0.64594428109127    2.17452421864543
H           1.14118230831538   -0.64490264205430    2.93038572977761
H          -1.17517547406605    1.12866651295371    0.54757265521624
O          -1.13552423203631    1.48454813296573   -2.51851779679943
H          -0.82241215238252    2.38921505473336   -2.56979431976300
H          -0.31719909637452    0.91057335203958   -2.66281611965536
O           0.45692350815176   -2.43816301278735   -1.72562850822740
H           1.25886771091807   -2.95332605800874   -1.62401938291727
H           0.27791889124533   -2.04406616665562   -0.84806014237454
O          -0.14715402634530    0.08363714915973    3.87965323639251
H           0.18517383241992    0.66779055786285    4.56471966412280
H          -0.19852608245257    0.61639670754143    3.05794356882364
O           1.01089430613848    0.06561009599245   -2.61416590332243
H           0.77363456814028   -0.88056066701567   -2.55859232362262
H           1.45148796317509    0.24608490986326   -1.76093052505190
N          -1.77704149825332    0.61099311310263   -0.14383836415945
H          -1.60334455237877    0.99252326424122   -1.13409853135331
H          -2.76083623269698    0.60746713013600    0.10395935282816
H          -1.33451412894601   -0.33855068726824   -0.05156326459005
