    23
        -45.36647988  Gyration_radius:  2.36141484087 Dipole_moment: 3.672
 S          -0.03395074127163    0.67453605871442   -1.11925759787562
O           0.08614085960643    1.38494751642017   -2.34820491957839
O          -1.11035446948579    1.06483311145002   -0.24046026982636
O           1.28519207007400    0.80578169189733   -0.30206722468926
O          -0.13360261092243   -0.81803224756128   -1.41752583893804
H          -0.31085177323794   -1.39584092809614   -0.52337245808657
H           2.00287759228500    0.63022474894862   -1.02285436768986
O           0.89984092953548   -0.46484221997586    2.18757566618381
H           0.21949362139758    0.14511070921289    2.54472316553420
H           1.33234310941756    0.03420642312385    1.48378389411440
O          -1.17057745983532    1.22477586889508    2.51916704792292
H          -1.11550980854859    1.44208736091955    1.57539227746376
H          -1.97596588193849    0.70788690257303    2.61607254570565
O          -2.87496958620979   -0.61879928742514    0.87567060882159
H          -2.34554945117238    0.06297380314892    0.41568099581740
H          -3.61960243355202   -0.81883864008459    0.30691387598396
O          -0.57471738114499   -2.02871462392643    0.69775889486359
H           0.02952604216164   -1.57061402276242    1.34820181198004
H          -1.47905466147848   -1.72073812747617    0.91242079509216
N           2.68146735883710    0.34459197951623   -2.37467334071213
H           1.90627259432406    0.73948827797722   -2.90282375144647
H           2.76156788451404   -0.63832550888546   -2.59963419541912
H           3.53998419662677    0.81330114337845   -2.63248763522872
