    23
        -45.37816661  Gyration_radius:  2.38424743927 Dipole_moment: 1.942
 S          -0.92018478486939    1.69930295799027   -0.75856299246773
O           0.36378735991925    1.56755018031052   -0.07412953562281
O          -2.05369135930128    1.43711960378436    0.10685599674558
O          -0.95322935986202    0.92342623896437   -1.98181201756502
O          -1.01475124750157    3.22744477341588   -1.17035472800267
H          -1.90325219769324    3.28547246693976   -1.50558931816178
H          -0.93468003565407   -0.77888804273532   -1.83565891325478
O          -0.68283223004134   -1.65007591988351   -1.45961281954701
H           0.78972084357733   -1.18089505563539   -1.16586677458585
H          -1.13838053250826   -1.68439282991055   -0.59983790212116
O          -1.87882842367568   -1.01486234663365    0.92338806995057
H          -2.71985897262841   -1.29188643259966    1.29067220780823
H          -2.00419535355805   -0.07581001741535    0.62668474080736
O           0.36507200295693    0.02636909274093    2.17262162644130
H           0.37235393742524    0.74425133890395    1.51416124615491
H          -0.42588024534943   -0.49258761349715    1.95633032837672
O           2.52060031478151   -1.30567418408841    1.48952666056307
H           3.26414742753341   -0.89053166243442    1.92854522152553
H           1.70638617177802   -0.88320765409726    1.87652383934154
N           1.63747528460649   -0.57550958519087   -0.91423961755923
H           1.22501577479819    0.36486575581904   -0.66430049711062
H           2.27239723842094   -0.49676484636070   -1.70038844679906
H           2.11280838683901   -0.95471621839493   -0.05495639490845
