    23
        -45.37816685  Gyration_radius:  2.38413395053 Dipole_moment: 1.930
 S          -1.76481387213790    1.08131756489158   -0.15895866984352
O          -1.40210319240860    0.03369862459331    0.79258097329009
O          -1.91117992134035    0.58996325983018   -1.51531386023949
O          -0.87159534761832    2.21815570863014   -0.06416046156206
O          -3.20151025755244    1.57415368452535    0.29583163176886
H          -3.44301397684597    2.15765464878188   -0.41591802075344
H           0.74741928019962    1.99418941893381   -0.56318899358385
O           0.38043265310720   -0.35504464378041   -2.26694230508390
H           0.38653384577549   -0.46276071765634   -3.21947151561631
H          -0.51385056753575    0.00961498072576   -2.03700757724752
O           1.69778353596414   -2.24385191614429    1.53543279786751
H           1.43114901705368   -2.86809664415088    2.21161439900928
H           1.03748276107391   -2.34487018899900    0.79715395614645
O           1.59824941294695    1.51860809893599   -0.68004775126406
H           1.48165211559992    0.81426084398968    0.72172471422344
H           1.40580835526210    0.83719063244823   -1.34831551878200
O          -0.21115738760904   -2.17653218166855   -0.26398616680066
H          -0.81334995326128   -1.51820720574743    0.12722173829198
H           0.11460182073919   -1.75485370199174   -1.07501016189327
N           1.08265274432202    0.34610812296104    1.59932293177017
H           1.45612670919934   -0.63390377137699    1.69033470894658
H           0.04467658151113    0.27785182113501    1.41301652219040
H           1.26800561357273    0.90535358114265    2.42408664916894
