    23
        -45.35600838  Gyration_radius:  2.39253213031 Dipole_moment: 4.980
 S          -1.89447640779282    0.84248598010878   -0.04630658940239
O          -2.14864277740771    1.84494279145646   -1.03060636727229
O          -2.95350130758061    0.46240615279942    0.83440451332601
O          -0.66788450741244    1.27728732275840    0.79732033875552
O          -1.38081756096815   -0.41999671261001   -0.80972170185005
H          -0.68585694800642   -0.92173550910887   -0.27865857353177
H          -0.70313716416736    0.68004953760712    1.66235722730813
O           2.45104015907912   -1.74473294296170   -1.56061708389895
H           2.80190441830698   -1.75891949762304   -2.45171817643787
H           2.57515210883150   -0.84626921162324   -1.22718594165459
O           1.87795923898086    0.75822041699910   -0.29286235679782
H           1.71527979740247    1.42576771629814    0.37692999825756
H           1.30909664666858    1.03062751276276   -1.05385838715692
O           0.57745889109092   -1.47858652081386    0.46726711752689
H           1.09853368964287   -0.64717904921853    0.37202287324867
H           1.01645547844225   -2.08332628791513   -0.14679958045814
O           0.19454778714092    1.41362284394879   -2.26204723763433
H          -0.07639170266340    0.61970638202573   -2.72991454495821
H          -0.62709104457206    1.75853776646733   -1.86265690633050
N          -1.01894826865431   -0.36228511992339    2.68861443048783
H          -0.91280125169608   -0.20245874784141    3.68063267199972
H          -0.54368551036530   -1.21650122762722    2.42417470131283
H          -2.00419377428059   -0.43166361595412    2.44922956515208
