    23
        -45.36328812  Gyration_radius:  2.29644632761 Dipole_moment: 3.904
 S           1.41147147349516   -0.16856893410515    0.15562419763691
O           1.98544761507829    0.01534711567266    1.44681529351738
O           0.83092809200111    1.01055635303523   -0.44718533759511
O           0.31184331937047   -1.26053666643773    0.23551237863951
O           2.42832759384582   -0.76304183931588   -0.81936499538629
H           2.00657357153286   -0.66810365574760   -1.74643942425925
H           0.10901111303885   -1.43813878276659    1.23748761012191
O          -1.78022211288668    1.23048159952657   -0.82601362994538
H          -1.95605093906778    2.02722156026961   -1.32971014203129
H          -0.81144382163838    1.20414419372922   -0.67290857557596
O          -1.22390851698944   -1.14139911419603   -2.10635616331134
H          -0.90528584991216   -1.62086781677172   -1.33300979772300
H          -1.65211443217618   -0.34455034523572   -1.74349601839778
O          -0.05150918679741   -1.37628706848508    2.71115802750051
H          -0.50812586217035   -0.48934980427717    2.70814368689751
H           0.86402365339572   -1.18323939692539    2.94506156595229
O           1.13797198612725   -0.30234809891545   -2.95031989737800
H           0.23861284402842   -0.68982185808746   -2.77751610671772
H           1.04554930342313    0.64537045268938   -2.81543207862930
N          -0.85902686871424    1.08822431553326    2.16301160183490
H          -1.11551105121544    1.83015578621073    2.80266802748506
H          -1.54364405838755    1.07261178944318    1.41407001919457
H           0.03708212641820    1.32214022080717    1.74819975957503
