    23
        -45.36022427  Gyration_radius:  2.38708401959 Dipole_moment: 3.308
 S           1.03393545167205    1.19550625004024    0.47128815795862
O           1.28011661674203   -0.20972985412807    0.66174967895906
O           1.14630048779289    1.98312049618186    1.66096209657208
O          -0.39889972423300    1.36483520436799   -0.13707655893451
O           1.90299020160524    1.76564681534747   -0.63571579593500
H           1.50018562238631    1.47783102000945   -1.54211912868656
H          -1.05745811138559    0.94634193283109    0.49203332070365
O          -1.91707011368877    0.28255251151416    1.64865219400477
H          -2.50158997542199    0.92717127302223    2.05363550312464
H          -1.20908350653925    0.09054309475639    2.32178908158288
O           0.71862813256174    1.09887242905657   -2.75323652044777
H          -0.13695113506466    1.50632917798795   -2.59422193997978
H           0.53967392524264    0.11864629098827   -2.81100766623355
O           0.14714728618817   -1.45933665153842   -2.78953680971808
H           0.93512614343371   -2.00407413236278   -2.82373143121339
H          -0.29016865441712   -1.65867007498198   -1.91612093573106
O           0.18374815720692    0.02051153878744    3.20225403458908
H           0.72851387086968   -0.63744955466216    2.75686790208355
H           0.58322474432460    0.86978694272243    2.93863388198647
N          -0.77619788938291   -1.92317745080093   -0.32878885703185
H           0.00522443578798   -1.43209346939075    0.10499248367589
H          -0.79507153645223   -2.86521752070566    0.04159502899446
H          -1.62232441928129   -1.45794624902334   -0.02289772026181
