    23
        -45.36666042  Gyration_radius:  2.38865530477 Dipole_moment: 3.591
 S           0.64011039972786   -0.05140925756625    0.81248695766297
O          -0.35050578187903    0.59019164422902    1.62375896131786
O           1.51475606330077    0.87370310310973    0.11700406838959
O          -0.01608419864528   -0.96868998822595   -0.21858535189338
O           1.46678433988543   -1.01474149046807    1.66492612934287
H           1.89935318155344   -1.67520785599081    1.02172095664411
H          -0.87026914176876   -0.44682293320583   -0.71791152684107
O           2.31505049495655   -2.53430999949719   -0.19032174481925
H           1.45482715359231   -2.64732367902889   -0.60826716523535
H           2.80141389834933   -1.88066008710796   -0.74250568336949
O           3.15967327529351   -0.40050254434800   -1.53486437411112
H           2.92399527998110   -0.12706414700767   -2.42319440192577
H           2.65951378373746    0.17995387387801   -0.92539817520233
O          -1.87067514649354    0.30089064873048   -1.19641784868255
H          -2.51966288077400    0.26807647363510   -0.42977993973791
H          -1.46818703467597    1.20315103888341   -1.15235919119164
O          -0.51915329447282    2.48466921530553   -0.54289888805257
H           0.34613936417987    2.05868661381764   -0.40359245576313
H          -0.83532984219927    2.68871207326388    0.34120269812869
N          -3.15888601390948    0.27566402705745    1.10495906080168
H          -3.76121282464326    1.02861716142130    1.41268835716079
H          -2.25160098591094    0.38907199032808    1.55762011360274
H          -3.56005009896902   -0.59465586120147    1.42972944378559
