    23
        -45.37078329  Gyration_radius:  2.26781538359 Dipole_moment: 2.638
 S          -0.99072499500474   -1.43318375867914   -0.61644512116129
O           0.08201786462926   -2.38400790434341   -0.81101911211881
O          -0.86586443708803   -0.23882536977665   -1.43290833143319
O          -1.18227208289898   -1.10149705469075    0.79451665160036
O          -2.31867936406509   -2.15003054151288   -1.09001170568417
H          -2.16826805747306   -3.04374158378927   -0.80004165043135
H           0.00728165351187   -0.64600793448653    1.59101572300607
O           0.82070913998777    2.01604050376034    1.00059309503993
H          -0.16803649821911    2.07830152953190    0.83011362908778
H           1.21442351610228    1.82884238229248    0.12976521233956
O           2.29140866768650   -1.30119953627686    0.10166870624673
H           1.57813882298712   -1.87292940846294   -0.26635463295669
H           2.33988982695021   -0.54368978736291   -0.50589154992155
O           1.50255209675289    0.86106853717105   -1.39349117764923
H           1.71634713366349    1.19286109756988   -2.26667202494409
H           0.60573553906865    0.44951234836703   -1.46760595458780
O           0.90442059921103   -0.28607464102504    1.93869232967626
H           1.59972816481025   -0.74182201655825    1.30694412238480
H           0.90707919821125    0.75465039325203    1.64601436420089
N          -1.73238547339012    1.75883955808398    0.41126402213830
H          -2.17926890395993    1.23880131779982    1.15679649910252
H          -1.58585338317033    1.09459453736091   -0.34890844537500
H          -2.37837902838247    2.46949735147272    0.09196534162081
