    23
        -45.37280797  Gyration_radius:  2.38336414112 Dipole_moment: 5.483
 S           0.45531560032945    0.43348298578144    1.93812152751057
O           0.99758598533595    1.02716982449864    0.70547423733170
O           1.33722674678690   -0.55212016910799    2.51099943990403
O          -0.91118685587312    0.00211306559114    1.74552869727262
O           0.40706132074273    1.63172669035560    2.98674354100691
H           1.22116240766900    1.49743126860092    3.46126124299199
H          -1.82858033125249   -0.22080992249277    0.32721036922247
O           0.61663810350646   -1.18022381470452   -0.82465110708719
H           0.55688941911626   -1.93022729933460   -0.19425370500958
H           0.92721864798190   -0.43772283793035   -0.27650104820124
O          -1.98531858924846   -0.32513024919211   -0.63647303755739
H          -1.25548890584891   -0.91138552585021   -0.91053874326914
H          -1.32180336188205    1.02317401636299   -1.08600443468064
O           0.19017949881921   -2.65252344138993    1.35653803440492
H           0.73310015429379   -2.03120905103600    1.88093123805258
H          -0.71569643696466   -2.44481218574899    1.60069739881735
O           0.72599133271557    0.25105609215692   -3.13579018951479
H           0.88459673145540   -0.38984151080036   -2.41754492889367
H           0.29094694416213   -0.23490893559104   -3.83829889840468
N          -0.54029825023242    1.73664626861689   -1.27271156629972
H           0.11193278216973    1.61312701339300   -0.44005169518437
H          -0.86861293541359    2.69070269680721   -1.36198626317422
H          -0.02885999836816    1.40428501101743   -2.11870009922843
