    23
        -45.36639226  Gyration_radius:  2.27881480451 Dipole_moment: 6.767
 S           0.66468605832351    1.32000344268933   -1.37413479990599
O           1.35407050354978    0.03202551808809   -1.43731281742046
O           1.29673093825259    2.39728226673837   -2.05072240347964
O           0.61496664647102    1.68382126242921    0.18752245565656
O          -0.76265148894093    1.14167224522061   -1.72556768647411
H          -1.55538139718564    1.34067847868726   -0.59249435894414
H           0.91870916153617    0.90798073088722    0.70367581250289
O          -0.62670015387867   -1.63120280370094   -1.10143183772222
H          -1.28540625083526   -1.40002175188177   -1.75906418162033
H           0.11760105768529   -1.00266601347452   -1.27330303519146
O          -1.38617393827104   -0.90724626855822    1.34109039112560
H          -1.17999938981011   -1.32339807697036    0.46875968480945
H          -0.51874333619881   -0.77554073179946    1.75395430499834
O           1.28110904503992   -0.36863755396165    1.77835928878174
H           1.97532020980361   -0.11072660577342    2.38654254517328
H           1.68246831592955   -1.05000853717602    1.16878269776502
O           2.25967838755817   -2.00927701990167   -0.00802050335119
H           2.19308392213718   -1.29300840290530   -0.66935467175111
H           1.59195806431005   -2.64982922501837   -0.26958509629184
N          -2.07503941723502    1.42718836585238    0.39690425213469
H          -3.06606190436956    1.61497069927615    0.29111996839749
H          -1.60548167108102    2.17225091997945    0.90390826615062
H          -1.88874338279248    0.48368905127724    0.88037172466235
