    23
        -45.34808331  Gyration_radius:  2.53113390407 Dipole_moment: 2.350
 S           2.13369949786999    0.70362417476513    1.10413708549515
O           2.62425389567613    1.00080094179686   -0.20311966020503
O           1.66966075883585   -0.63802565705744    1.28773858504991
O           1.09314671573043    1.72822987753091    1.57108858689469
O           3.27416052572587    0.99038587048626    2.15393647179177
H           2.94885274426872    1.68166022214770    2.72644641948315
H           0.23347115204401    1.48971575502479    1.02190665755174
O           0.68535845125265    0.29609486820579   -1.99635865924269
H           0.71905064908199   -0.66432479461209   -1.85001099881022
H           1.51186314105935    0.63948180630518   -1.62279222781231
O          -1.72029520509269   -1.81481191173378    0.14054965269374
H          -1.00773230437743   -2.22078633803678   -0.36714881108447
H          -1.29237656586873   -1.09158660631464    0.61386865267457
O          -0.70503339199670    0.87976234558700    0.15300961267287
H          -1.67637794270599    1.01070869514857   -0.02191744853326
H          -0.28694120168377    0.72421325291887   -0.73387855595590
O           0.95827455818740   -2.18410332296070   -0.80687266189561
H           1.63360623875550   -2.85486046744897   -0.91759090630486
H           1.19842779505974   -1.68418428432135   -0.00144103398878
N          -3.27782058647188    0.64061390116736   -0.48777341881352
H          -3.52576632052033    0.85350349917378   -1.44566141483027
H          -4.06464672663987    0.87844080729407    0.10215274222542
H          -3.12683588802461   -0.36455263502721   -0.42026868906547
