    23
        -45.37992094  Gyration_radius:  2.36443878717 Dipole_moment: 3.341
 S           0.51156337033460   -0.95831304733735    0.73706730194337
O          -0.94342194640157   -0.89816746610363    0.71321388363449
O           1.09250490786664    0.20196035901819    1.37213766763139
O           1.04360360462460   -1.14134168794326   -0.62832513351553
O           0.88778099529064   -2.23605985957960    1.54951990188475
H           1.83837071198361   -2.35876301326944    1.35585389340277
H           0.42085315365078    0.03177249962268   -1.48107287115528
O          -2.55776664508298    0.04722575185596   -1.20994058332642
H          -2.11457011380970   -0.55123668827255   -0.57646196442183
H          -2.97337683377077    0.71557699673329   -0.65458836677410
O           3.21085898498023   -2.31755829159710    0.28575978770904
H           2.58509712577093   -1.79510665902250   -0.25473625722764
H           3.37698116512412   -3.13098963867997   -0.19619100582472
O           0.24764235205382    2.42076644525301    0.23407891107915
H          -0.64166039597168    2.37965677812665    0.63567168021002
H           0.74725113949762    1.73157654559600    0.72845301405656
O          -2.02671847722392    1.44285818801331    1.34882794305779
H          -1.62219080924853    0.55618046939954    1.21510996177545
H          -2.09172014587063    1.55872719433051    2.29777340146990
N          -0.11033297793137    0.87896216029315   -1.82933430837348
H          -1.13306091485290    0.62324850536872   -1.78918914469549
H           0.18449512798431    1.15210315382901   -2.76014339961113
H           0.06781659101275    1.64692129438331   -1.09348429293431
