    23
        -45.36103487  Gyration_radius:  2.33156152265 Dipole_moment: 1.502
 S           1.60625397067406   -0.94528926288080   -0.46679560190724
O           0.31431534878112   -1.57018423859263   -0.66294999458127
O           2.03090063703524   -0.85236321188230    0.90918086396273
O           1.70337155103147    0.34718629824533   -1.15739414668451
O           2.65321192164842   -1.89285558918773   -1.19192523015015
H           3.48840693150286   -1.61180132938880   -0.83028057613698
H           0.62278308661100    1.10310197938285   -1.66379785081913
O          -0.13154780412119    0.62635312814825    1.32802347972657
H          -0.74839747695130   -0.07974898701776    1.60359868351097
H           0.73413896935183    0.18324230068402    1.26891681014545
O          -0.24946467317547    1.67328483686618   -1.87202178407055
H          -0.27702189437734    2.34432766508002   -1.09323588042682
H          -1.00852319501035    0.99024170711476   -1.67579738825755
O          -1.82715736659892   -0.14702852880277   -1.13456865401916
H          -1.08693441453629   -0.79665487675816   -1.04418348119299
H          -2.09743259678737    0.04757758065983   -0.23124501186803
O          -0.20530784628793    3.02856835208723    0.27953395949481
H          -0.24066269640182    2.19894002612889    0.81323923025248
H           0.65863587428145    3.41172615253563    0.44387635958982
N          -1.50025275497380   -1.73653364480011    1.62242127532766
H          -0.85963888894084   -2.00881627812665    0.87768713023960
H          -2.40699629496552   -2.13333082024764    1.40559085077451
H          -1.17268037780426   -2.17994327922287    2.47212695708708
