    23
        -45.36146887  Gyration_radius:  2.35590890494 Dipole_moment: 3.097
 S          -0.66019106243392   -0.48934347181792    0.94840094355160
O          -0.97305886405114   -0.22587432070428   -0.43972610291318
O           0.30579481614937    0.37648479816077    1.53775978932730
O          -0.22531484914867   -1.95457660371261    1.07993407694474
O          -1.97163221503074   -0.44630658172350    1.76322442600792
H          -2.58223038179334   -1.05337264102745    1.27438236620185
H           0.83002518912958   -1.98840436481873    1.01834060321818
O           2.23601171096864   -1.74750296548708    0.82859223028395
H           2.47468238389889   -1.06961535786988    1.46837145640120
H           2.18871394019198   -1.27722300186377   -0.06122647843195
O           1.91100261510908    2.02456850875492   -0.05441554903723
H           1.48015762806617    1.65263235458308    0.72673929109941
H           1.18618834362358    2.46147915403705   -0.54743478339346
O          -2.90797353692665   -2.07317960284655   -0.03556511900135
H          -2.36373091798410   -1.50875104032384   -0.60631657012582
H          -2.41950611411030   -2.89255053776708    0.08489726720931
O           1.70933138111006   -0.32538251402801   -1.25834386246579
H           0.74382839486098   -0.32508662395399   -1.25167506703021
H           1.96339840001976    0.57836217649123   -0.94209682840804
N          -0.47549131311158    2.61276192111136   -1.29326139887119
H          -0.52994145119386    2.72593674035826   -2.29793144921357
H          -1.12129500976577    3.26940021065795   -0.87351198498605
H          -0.79876907757177    1.67554376377601   -1.06913724637874
