    23
        -45.38134558  Gyration_radius:  2.27238507157 Dipole_moment: 3.507
 S           0.62097272721007    1.41599338869607    0.83576730389730
O          -0.32850238539854    1.71126601011684   -0.20933819373379
O           1.74354708385991    0.59924060339578    0.37440444340368
O           0.00849720941431    0.83049395227715    2.01964527347190
O           1.24065679869536    2.80061362698242    1.28708910170682
H           1.80207957140157    2.55291995050079    2.01452542619311
H          -1.58538272613195    0.60453627656001    1.60220965520456
O           0.74024379886786   -1.69112093461847    1.15918256131557
H           1.24207771216402   -0.91147994885376    0.82905621397698
H           0.41401688136559   -1.39124705951360    2.01428834668938
O           2.08135507962336   -0.40614635236375   -2.07562850809544
H           2.56353884820425   -1.21887560675788   -1.91553124673587
H           2.05207307473559    0.06355374916772   -1.21742395380466
O          -2.41509444757367    0.47153897206822    1.08822757418268
H          -1.97771671273862   -0.80278515769501    0.20468861634226
H          -2.40875982416252    1.20862812885573    0.46802957042547
O          -0.56092885416825    0.04344499552491   -2.28226482769307
H           0.37881361743140   -0.16606035498952   -2.45469390948406
H          -0.52280131190831    0.81682833246125   -1.68313082274049
N          -1.42943620494669   -1.50033707636152   -0.37820035640237
H          -1.97902187919922   -2.32128896784401   -0.60432963953998
H          -0.57031281359005   -1.74271421039898    0.18366335143788
H          -1.10991524315912   -0.96700232721559   -1.26023596001195
