    23
        -45.37199062  Gyration_radius:  2.36474542138 Dipole_moment: 5.741
 S           0.23273362347671    0.15374564382784    1.11650943432413
O           0.50193404469173    1.08199290602815    0.01722491971284
O           1.40002763445122   -0.58183144764811    1.52307505498553
O          -0.85094103459917   -0.85167656878526    0.58241870994594
O          -0.45954512369003    0.83214931903170    2.21833357337078
H          -1.74431810881973    1.01213900224826    1.70535129114220
H          -0.42739460144770   -1.41918825497901   -0.14990164460801
O           0.29380178653435   -2.17207172205487   -1.26824186429338
H           1.08393251745193   -2.55796605147480   -0.86063172818229
H           0.66418983084351   -1.43415338547884   -1.81115026935858
O           1.73332486884249   -0.09991096807154   -2.06155197445777
H           1.35404914630354    0.46237472547634   -1.35973331650547
H           2.49082510208743   -0.54160154976970   -1.65815779007293
O           2.83061796940369   -1.98650896429413   -0.17315887577085
H           2.35037256049432   -1.44348866257798    0.49301272114831
H           3.56300062189745   -2.38797875940843    0.29563907985815
O          -1.55069858807276    2.39326247581895   -0.86343466170594
H          -1.29636421741715    3.31744074866858   -0.88244005162126
H          -0.72174983978566    1.89256082379780   -0.63575284117802
N          -2.69048899913827    1.07760579439047    1.10120209610946
H          -2.83845623632489    0.13078585143399    0.75469613170413
H          -2.43218799927629    1.70368504683792    0.28740900261535
H          -3.48666494907028    1.41863399807846    1.62928299263182
