    23
        -45.37304143  Gyration_radius:  2.28372641931 Dipole_moment: 3.049
 S          -1.31885136037948    0.95015396414718    0.64746339458210
O          -1.13606492889570   -0.43682379674966    1.07111261959851
O          -1.38777356058808    1.08438345577849   -0.79613779111340
O          -0.34541408526830    1.83310158142618    1.25339288965014
O          -2.73292812753095    1.37517659633261    1.21607450381136
H          -2.72774579347949    2.31245699719793    1.05463238090924
H           1.37235113973687    1.69634252715582    1.19773568565673
O          -1.54233950908898   -0.90146107737149   -2.64805520420684
H          -1.62670810496710   -0.18639033248884   -1.98919734274243
H          -1.30203641818844   -0.47054092889314   -3.46994396299400
O           0.14733163282137   -1.95359108833117   -0.79131039229965
H          -0.48190760388361   -1.55595267451205   -0.16357720496140
H          -0.35367668967065   -1.95924852288684   -1.62401677488769
O           2.20938929203572    1.24365851880032    0.95545695174562
H           1.85256233162774   -0.10082857220816    1.41230628343624
H           2.10022039920173    1.10546621823377   -0.01672685681029
O           1.19673896403577    0.52572769877893   -1.35939927835137
H           1.02919491081621   -0.43351774121542   -1.31027513455219
H           0.31501253377865    0.92607372526395   -1.26957270986702
N           1.33724521415433   -1.06016549987573    1.63321808124299
H           1.59930535752187   -1.45803496355609    2.52839457009444
H           1.49070358362034   -1.72338818469895    0.87071048783982
H           0.30539082258915   -0.81259789032807    1.59771480421920
