    23
        -45.36692909  Gyration_radius:  2.22806396421 Dipole_moment: 4.413
 S          -0.19127794538050    0.12794882852028   -1.27497251380216
O           0.26423629195289   -0.79413663222454   -2.28302554704386
O           0.02569245220441    1.53297960352877   -1.56702650628194
O           0.74551295098864   -0.14721177966284    0.01574202982211
O          -1.53984054471453   -0.15126655229380   -0.79686049706327
H          -1.73389562073523    0.02971689339055    0.64213812033622
H           1.63458430863678    0.05076162393578   -0.34187805377477
O          -1.57993213257672    0.19861759239388    1.65244410189041
H          -0.99302166876776   -0.61141889393744    1.90359603529961
H          -0.98562214910919    1.10052342872050    1.57631433272153
O          -0.56169761129975   -2.75833865921269   -0.57726932104951
H          -0.16625671015229   -2.16281224935604   -1.23910875932175
H          -1.50764036123808   -2.70014825828951   -0.73423734761582
O           2.58353471504974    0.68953292991825   -1.68495723727001
H           1.85445488480721    1.31053605060484   -1.84963624601647
H           2.44903296871005   -0.01625885818086   -2.32645683980075
O          -0.12661709418505   -1.87873407450114    1.93430863210410
H           0.77583524448595   -1.56064371803200    1.84575678574503
H          -0.31783445433479   -2.30974401716492    1.06589211042227
N          -0.28393450327687    2.30752266537363    1.13117769394680
H          -0.19951986866188    2.15716909186979    0.11808817984612
H           0.64931885188788    2.41701936314625    1.50752447211380
H          -0.79511199425557    3.16838564158995    1.28244636478279
