    23
        -45.37675787  Gyration_radius:  2.29638037519 Dipole_moment: 6.054
 S          -0.55201169729106    0.52712619037052   -1.18704306363259
O          -1.63014552552658    0.47050832744348   -0.20859085980536
O           0.07988552225234   -0.78905690203854   -1.33852646017484
O           0.42194446811137    1.55452090831431   -0.86877312700001
O          -1.17767156138061    0.85123483160194   -2.58236481904768
H          -1.57885967898831    1.72735064353294   -2.42091711134957
H           1.09483714024688    1.25113251185039    0.69709441599980
O           1.41593893480661    0.79863051402982    1.50163794588566
H           1.98582175695019    0.09004121717090    1.16523778149496
H           0.00151755911438    0.14313966864079    2.16611716788538
O          -1.85560613669796    3.00285795333201   -1.21130861424482
H          -2.22247176626642    2.36821841383958   -0.58134194058249
H          -0.91246990241014    3.04121843015141   -1.00012841024568
O          -0.84380928917648   -0.37437103814481    2.15738074443792
H          -1.33644983655294    0.01388766439203    1.39882600095182
H          -0.41671858835980   -1.59132755342583    1.49395977941025
O           2.42760521229638   -1.22958524580567   -0.12998838893262
H           1.67199398766347   -0.99217834846294   -0.70760374168529
H           3.21737733140863   -0.96369510069405   -0.60318699570271
N          -0.04244405707836   -2.34482830476528    0.75880649534067
H          -0.56725362143101   -3.21213862930192    0.77177606192601
H           0.95543755638632   -2.50476365828577    0.89817261366331
H          -0.13644779808674   -1.83792249375062   -0.16923545459311
