    23
        -45.35316486  Gyration_radius:  2.53360362134 Dipole_moment: 2.658
 S           1.23790528928802    1.99139632123736    1.32447818350363
O           1.18556398181505    2.94044481153591    0.25720000614206
O           2.05568778251837    0.83736216410457    1.15330906319155
O          -0.17894087773468    1.59619038875555    1.75408687771324
O           1.75043593269200    2.76773119358194    2.60030194063816
H           1.45794497986530    3.66987648617881    2.49042393980321
H          -0.40455074451675    0.58953112250923    1.64477672317293
O          -0.87887541489103   -0.80295198049632    1.47803692385350
H          -1.50252095709471   -0.98072249661076    2.18460226094709
H          -1.44119506190388   -0.70901421377028    0.61286403856111
O           1.29025250684958   -1.29349389099680   -0.32174738910268
H           1.89931825301836   -0.68973202330435    0.12762213720345
H           0.61547731514560   -1.47972602532726    0.34329020002321
O           0.00266227346954    1.00819641085035   -1.31037752919132
H           0.42885389503165    1.78689674352503   -0.93240818502394
H           0.58361946300194    0.24699942110230   -1.14388161131710
O          -2.13289386422112   -0.50232108261712   -0.70022354396405
H          -1.82617475142874   -1.25723319788219   -1.26019547134641
H          -1.59219379664716    0.24799215590084   -1.01487177979665
N          -0.83652970038240   -2.36251648079490   -2.18503780199254
H          -0.80678889702558   -2.06814994923217   -3.15316862092970
H          -0.98309814681152   -3.36374098424004   -2.16797450233666
H           0.07604054997327   -2.17301490400360   -1.78110585975009
