    23
        -45.35944861  Gyration_radius:  2.3569869238 Dipole_moment: 3.001
 S          -0.69090934842251   -0.70321977643954    1.79453925057113
O           0.67052133700915   -1.01929589031702    1.38700684934606
O          -1.69505503307280   -1.54720111184648    1.20739513665723
O          -0.97798452015843    0.72193542486146    1.60897780241601
O          -0.73237128199472   -0.95546344867113    3.35942091491583
H          -1.67009202481100   -0.99262017668626    3.51530980343578
H          -0.15471212546567    1.67170360580740    0.93078136644580
O           0.47504248542658    2.25960480616574    0.32436247215524
H           0.00784784357963    2.24347673755984   -0.61196744487557
H           1.33427792462887    1.69874769138725    0.24608647929628
O           2.39014287236915    0.59299430409689    0.21062823020002
H           1.94417538900701    0.01335313708341    0.86589783687684
H           2.37301994752662    0.06933158431479   -0.60161405672770
O           1.31004565678716   -1.70793990777529   -1.10604862433473
H           1.62243758723583   -2.61227555757315   -1.15909133289919
H           1.01783700655557   -1.57921241929323   -0.17798611660557
O          -0.63425373706668    1.96440210177008   -1.90989016695368
H          -0.01828768818336    1.88198264002134   -2.64019911313919
H          -1.01050719089508    1.02620844552589   -1.73582395947450
N          -1.35107580123523   -0.47969489551276   -1.42975742790067
H          -1.58789395619001   -0.66602617984583   -0.45548102644269
H          -0.51718861676596   -1.02813681093005   -1.62868233976047
H          -2.10501670586353   -0.85265431373166   -1.99386451317838
