    23
        -45.36669913  Gyration_radius:  2.29168875785 Dipole_moment: 4.995
 S           0.85048050596203    0.33769879512459    1.22016041136238
O           0.28968595329011    1.16889629665375    2.23221268144312
O           0.85623092396051    0.91740677442148   -0.11153753240327
O           0.10885892718355   -1.01315539994241    1.14099128330504
O           2.27104353771155   -0.08073058218835    1.58955097553223
H           2.69682770352631   -0.40563701518325    0.72101908249806
H          -0.88599988078483   -0.88389118924566    0.79449689120725
O           0.94502328064144   -2.30067014165092   -1.22606200477012
H           0.60929535344056   -2.32004308300789   -0.32141805272373
H           0.33639006022238   -1.72684945458965   -1.71735382728000
O           3.02607427233586   -0.72990728189529   -0.74065709287377
H           2.38327068842101   -1.43881837659871   -0.99700694034652
H           2.69282036605841    0.08222003587298   -1.13635190877630
O          -2.14238955949416   -0.59209858828709    0.16815077797484
H          -2.31914418035227    0.34019752074786    0.49418849356582
H          -1.87980323190018   -0.50999742879506   -0.76444206201537
O          -0.59438280651638   -0.11079536850886   -2.03426879106515
H          -0.04400205135988    0.34724868265120   -1.35528756044169
H          -0.60668605954981    0.45402989604035   -2.80818746180763
N          -2.21775547080006    1.88328511975976    1.08053732408671
H          -2.10204031835215    2.65163610873581    0.43157299699579
H          -1.34076185872691    1.78202853449713    1.59319092431774
H          -2.93303616488684    2.14794613538005    1.74650140219304
