    23
        -45.35891182  Gyration_radius:  2.31548365835 Dipole_moment: 6.605
 S          -0.31059387537669    1.07389914770331    1.75644762020331
O          -0.05238687911846    1.75829689693355    2.97742984411580
O           0.85549300989186    0.29925967302477    1.28235030487905
O          -0.58017107661223    2.14573170264385    0.60308517779515
O          -1.51480331069634    0.24935525823997    1.70472674340673
H          -1.79036945941766    0.16312544600788    0.33222641549515
H           0.26394098972901    2.58513750297056    0.43222804544966
O           1.26598868148735   -1.64000834916677   -0.37622997465438
H           1.07132709701204   -0.98089228260328    0.33943309858636
H           2.16657111357979   -1.92937575227084   -0.22316282281176
O           2.05595928810299    2.25394274866084    0.10416961051748
H           2.69692896749827    2.71644745443440    0.64590158054485
H           1.79180051895237    1.44752822828522    0.60862221282316
O           0.40057084049323    0.57855282338153   -1.78343137335159
H           0.84106680934919   -0.23583296376018   -1.48073167469304
H           0.89768384653090    1.31226009290076   -1.40462605306798
O          -1.88270192351724   -0.02157442918518   -0.71314454467048
H          -1.05748102487696    0.36496553812661   -1.15656859253693
H          -1.77616093643128   -1.07788054729655   -0.78538737931273
N          -1.43231375872675   -2.52660532641355   -0.74755596306088
H          -1.82002015496556   -2.94917095477668    0.08581441775023
H          -0.41755004981699   -2.49342863899931   -0.65232547731310
H          -1.67277872308679   -3.09373327895317   -1.54927119599192
