    23
        -45.36803517  Gyration_radius:  2.36105652454 Dipole_moment: 8.712
 S           0.36611414646583   -0.93915119451083   -0.27887784057782
O          -0.31807354471623   -1.08073791689502    1.00332581550853
O           1.78840266966919   -1.09921764813180   -0.21758262863675
O           0.04790008735052    0.54332889040418   -0.74019326265015
O          -0.28559509423217   -1.77289255225463   -1.30427511140450
H          -1.49181407867577   -1.13258177672524   -1.49139270450231
H           0.93212293657638    0.99967356073382   -0.94174758462544
O           0.62660459751874    1.15285940212614    2.13889853167285
H           0.18226903767496    1.79850430620268    1.58566563420239
H           0.28869561397296    0.28173595401991    1.85808781658921
O           3.14090345329160    0.82046553932885    1.15405983314625
H           2.39464531504136    1.05964084067242    1.73535018897620
H           2.91979305511575   -0.07078754150620    0.83663987470634
O          -2.89655166012017   -0.81547607913546    1.07185244402596
H          -1.90962048956266   -0.88704920370480    1.16482426741625
H          -3.25153478665262   -1.60294819272057    1.48805784380792
O           2.32358434487261    1.59919905605439   -1.19736342069188
H           2.72857216431474    1.47299433922245   -0.29021946358339
H           2.76991225026490    0.95488608632768   -1.75217792189268
N          -2.41288928277370   -0.47064490436580   -1.49063215178311
H          -3.07180480427663   -0.69609081754257   -2.22810197833173
H          -2.05117226752189    0.47691472505548   -1.58168774291713
H          -2.82046366361188   -0.59262486265902   -0.52251041843769
