    23
        -45.36427776  Gyration_radius:  2.31838643638 Dipole_moment: 3.132
 S           0.62096344655451   -0.37843359923655    1.33657751049157
O          -0.02703491038454   -0.78973563806665    2.55647561274115
O           0.29115563336060    0.96423110802169    0.89885746899613
O           0.47691532964085   -1.34256673725796    0.24746146599928
O           2.18739649052070   -0.36343188521664    1.68054166500023
H           2.20700432504821   -0.74033673219423    2.55486811323965
H          -0.29872654338399   -1.01916121149239   -0.95726761105243
O           0.28220326286978    1.55455930029513   -1.66409542560817
H           1.20939840876983    1.23013988522070   -1.78763248394939
H           0.21251296107777    1.60156402909130   -0.68507018970559
O          -0.87412390791309   -0.63427989091845   -1.72863423110558
H          -1.80825798853791   -0.53394994520335   -1.32080939886906
H          -0.45033984038140    0.35874088987992   -1.83458732802950
O          -2.23480461252442    0.48775240768834    1.83616150870208
H          -1.73126702791699    1.27740488056694    1.61101294270192
H          -1.56830345620439   -0.09780980608414    2.24637526228846
O          -3.08461849294305   -0.43122115803829   -0.47381179736563
H          -2.83289863701244   -0.05218319734202    0.41073749466544
H          -3.52145975043575   -1.26541530738030   -0.29354204932015
N           2.56175346157055    0.22063447444109   -1.28591117941525
H           2.49512279758268   -0.71606759326470   -1.66663119737341
H           2.36537440499253    0.14318634714305   -0.29341082962109
H           3.52203461440970    0.52637937994975   -1.38766529269321
