    23
        -45.38129257  Gyration_radius:  2.28542327447 Dipole_moment: 2.173
 S           0.43976698110574    1.60719892075573    0.71336653294031
O           0.36427022454919    1.64670022439196   -0.74451003937731
O           1.66629820694124    0.99042400524776    1.17119898862392
O          -0.76293976345355    1.03752079292990    1.29428390932935
O           0.48450382350386    3.11138974517640    1.20749764934980
H           1.39260242868515    3.35828296076735    1.06282356867967
H          -1.56739669670596    0.04497748492661    0.34863907000936
O          -1.14815215175500    0.48872846498687   -2.59818927135711
H          -0.48594293850461   -0.02347391004113   -3.06944120124504
H          -0.64032945502245    1.10722393146931   -2.03349553729233
O           0.02664822715282   -2.40167147310010    0.02832785866434
H           0.68827203243117   -1.94326487843983   -0.53209551574454
H           0.28485213655552   -2.16247765909936    0.94787038823526
O           0.64093702889609   -1.17761208938015    2.32427130621721
H          -0.15358474983458   -0.75774230155720    2.66405090220273
H           1.16678427626286   -0.43406908549802    1.96754197377829
O           1.67527699513220   -0.63396110384274   -1.16634115147301
H           1.23352730017038    0.23282594727992   -1.07100455118496
H           2.41398394536237   -0.58936343238167   -0.55366767038616
N          -1.89326630761225   -0.69945192729264   -0.32517928992374
H          -2.85246842211747   -0.97041991244503   -0.14122961857547
H          -1.19838579727953   -1.52230953444220   -0.20104545369461
H          -1.77525731448479   -0.30945517043848   -1.29367284777334
