    23
        -45.38129264  Gyration_radius:  2.28565399619 Dipole_moment: 2.180
 S           0.31604415713592    0.21444321516072    1.77079302850085
O           0.27945804128415    1.48448506688045    1.05102782526006
O           1.56638850762782   -0.48434123140475    1.56408588042836
O          -0.86331983593275   -0.58747734200745    1.49776097141987
O           0.24952545696894    0.56413052435193    3.31422483780380
H           1.14443610162623    0.81873897233121    3.51624765827017
H          -1.57507118197845   -0.29159398928924    0.10794417554154
O          -1.11246193398055    2.47333851977922   -0.98519538271054
H          -0.65693586186991    2.30707007419271   -0.13413947646807
H          -0.40963457821091    2.63052718914546   -1.62095054784535
O           0.18186010622256   -1.25262557743410   -2.04167822199803
H           0.39770522738874   -1.91837532399047   -1.34924703242733
H           0.82912606072703   -0.53155392147238   -1.88909217888247
O           0.65012505527655   -2.59313237604866    0.22389393535995
H          -0.17903072126488   -2.67672080456940    0.70193550589938
H           1.13720130134772   -1.90185870917573    0.71526783036771
O           1.75006273740133    0.68865393210607   -1.02302004681894
H           2.46408289675023    0.19032368471039   -0.61689973256972
H           1.24898464769198    1.04878951481129   -0.26492243263985
N          -1.83381600621560   -0.09706627688858   -0.89690180002236
H          -1.71717141893718    0.93588881676336   -1.04904238440949
H          -2.77755595426735   -0.40481781853040   -1.10181527103042
H          -1.09000280477215   -0.61682614943255   -1.49027715102878
