    23
        -45.37371314  Gyration_radius:  2.43075185787 Dipole_moment: 4.640
 S           0.49964159697940   -0.00208790183520    0.94070003731458
O           0.99384883078235   -0.90389247908892   -0.09460643006869
O          -0.61546559228870   -0.58892023365344    1.67144071702832
O           0.12743126546881    1.29982060973589    0.36103876985648
O           1.64366809309448    0.25099645394452    1.95368301682002
H           2.22654964539016    0.93801039592684    1.51106182650160
H          -1.45573391953220    1.33312788968476    0.26969316721623
O          -2.80522477976475   -0.76089699791387   -1.56899358059040
H          -2.40048210257115   -0.53200802413307   -2.40762388922770
H          -2.24674416076168   -1.49406909127957   -1.19372019967017
O          -1.13577221218541   -2.44043057051675   -0.42644558242567
H          -0.28183424983557   -1.95713509705220   -0.41988249974933
H          -1.34695012120606   -2.54441751789515    0.50547256599226
O           3.12945481151097    0.03407733245002   -1.35418676396251
H           3.81062349045201   -0.63198687005031   -1.24648544371701
H           2.30746948688872   -0.35955585756188   -0.98880652536419
O           2.75864932076128    1.99854140147597    0.43705902157427
H           3.08873603319265    1.42329417876310   -0.28618814239727
H           1.84345594358518    2.20178001323482    0.19523835149213
N          -2.37403784735591    0.84092403590109    0.48097195269796
H          -3.09395883365682    1.44734342878402    0.85730450355108
H          -1.98838772981573    0.14936733453036    1.17901613862081
H          -2.68493698912393    0.29811755656181   -0.37574100149421
