    23
        -45.36655843  Gyration_radius:  2.28288669223 Dipole_moment: 2.012
 S           0.04038341503064   -1.17874702619001   -1.26177648377253
O           0.19597931993164    0.25379390110522   -1.49561386662976
O          -0.89270297218642   -1.46394041687491   -0.19868293625326
O           1.34603734473753   -1.81105770508980   -1.08316175392512
O          -0.55737286627733   -1.80202690154980   -2.58078583981324
H           0.20718043746684   -1.84137643846570   -3.14578252800140
H           2.15590286792638   -1.19284437372354   -0.00164900209908
O           2.50039653942205   -0.58629288168562    0.76322644754702
H           1.62044069520993   -0.51713903634743    1.40070368358563
H           2.57751986300579    0.33944390223434    0.32567390562271
O          -0.54455038426070    1.73139838570950    0.64878081187087
H          -0.37452192490873    1.30728428887197   -0.21330014155913
H          -1.49977775432761    1.56142165177443    0.79513108231397
O           2.23192541242899    1.61784225316823   -0.48146212857800
H           1.56087391463256    1.20190147821082   -1.06522576224287
H           1.74172056546826    2.25430791265100    0.04997701896934
O           0.31476338849899   -0.38921523319567    1.90610930534990
H          -0.20807975007330   -0.97505020720923    1.31942042903807
H           0.01649696290324    0.52450016515744    1.63470912638100
N          -2.94442143280834    0.46281551296218    0.71131052558069
H          -3.37736004337537    0.16277193513955    1.57624097840594
H          -2.42407952248488   -0.33124803242293    0.34098106481737
H          -3.68675406607726    0.67145687579397    0.05517607338283
