    23
        -45.36669922  Gyration_radius:  2.29180900281 Dipole_moment: 4.999
 S          -1.29942834597900   -0.61140946514139   -0.51156801088755
O          -2.53381403565924   -0.03015019185988   -0.10142530094312
O          -0.43259973996455   -1.03238455584851    0.57501787762889
O          -0.49868731869006    0.36285564998560   -1.40071583121062
O          -1.54247379733334   -1.79458824187243   -1.44452780080196
H          -0.67006639348325   -2.32343538752528   -1.45149415138199
H          -0.17173027822121    1.20650118626242   -0.84574070535083
O           0.72444493645633   -2.89271726691981   -1.16520552143468
H           0.69973867746207   -2.83777558627203   -0.20429305422350
H           1.35355348911945   -2.18664197927002   -1.46036848370698
O           0.34111676961918    2.20286963802581    0.04858828680960
H           1.08395577398810    1.72998624393256    0.46084924665870
H          -0.38419430971866    2.24616918957819    0.74054507668956
O           1.87038978786865    0.14195945698554    0.99435702183263
H           1.00692937514410   -0.32915185880657    0.91535211405572
H           2.26320895075258   -0.13634108006753    1.82280204895416
O           2.10645775729360   -0.68532919321324   -1.66615418538296
H           2.30611490623355   -0.33472019841140   -0.78397129498227
H           1.36273233124419   -0.16249095725418   -1.99034164740381
N          -1.66085367488774    1.95295587951708    1.75010305424341
H          -2.13473973283183    1.25264137793320    1.17811012568969
H          -2.30255531280933    2.72471357160102    1.88363339602235
H          -1.48749979701880    1.53648377237292    2.65644777822494
