    23
        -45.35553533  Gyration_radius:  2.37484785387 Dipole_moment: 2.346
 S           0.47311407341408    1.28147235231576    0.05808690794509
O           1.68268836386776    1.50621004419260   -0.69751445758254
O           0.66771738273630    0.71055855129260    1.35629377196156
O          -0.47026452391697    0.41507382796336   -0.77660449067041
O          -0.30868548058167    2.60154565440325    0.19025328395975
H          -0.33801692961946    2.96089465720094   -0.73274545448096
H          -0.23919176820881   -0.64162410293990   -0.69185841900313
O           0.07340689383800    2.87947473326330   -2.36087743210539
H          -0.43917149299765    2.20004620101298   -2.80756404829843
H           0.92291853400184    2.47623070603942   -2.11933976844282
O           0.20707067721458   -1.94143553395600   -0.44421443890483
H           1.17969811585627   -1.78897328776039   -0.38757320176498
H          -0.09528279206491   -2.09146387824241    0.47623687341491
O          -0.38002168312817   -1.62552980105572    2.15485047173051
H          -0.08121021286645   -1.89440220164774    3.02491713609618
H          -0.05975600513448   -0.71417525536662    2.01255049430424
O           2.63711455092972   -0.93388953207301   -0.05054984586544
H           2.79322857691982   -0.81122262072436    0.88890098645784
H           2.50323139234081   -0.04051846087636   -0.41010522424600
N          -2.95628734687343   -1.10627677453598    0.39219367637959
H          -2.40523683638105   -1.33988884103523    1.21032389785699
H          -2.56216419168992   -0.25904735977982    0.00086835415085
H          -2.80489929766357   -1.84305908765901   -0.28652906287764
