    23
        -45.37141391  Gyration_radius:  2.31769544324 Dipole_moment: 3.514
 S           0.50307229734892   -0.37399429509334    0.98228927249708
O          -0.40530980547891    0.75497996486825    1.07002972576015
O           1.90334507414695   -0.00513819125405    1.05672520209367
O           0.22781224358505   -1.17550445351357   -0.22077983793953
O           0.16520803372634   -1.29460042702407    2.20426139058436
H           0.80939758007876   -2.02328789786658    2.09330843699462
H          -0.67109952673307   -0.62034211582064   -1.26255072064389
O          -1.34932445888490   -0.05789873383356   -1.80433249733938
H          -0.91285241389420    0.89506891370533   -1.75527438302126
H          -2.15857739720689    0.00820833822844   -1.11090148830846
O          -0.22618211961465    2.10676986949653   -1.23067125920509
H           0.73494092539043    1.98340738527577   -1.39846773192715
H          -0.32774593942204    1.87807326938197   -0.28490631571109
O           2.34428918199753    1.42887626323187   -1.13116478861787
H           2.24451459522529    0.86164690468383   -0.33652720897207
H           3.03636999883084    2.05875905250745   -0.92079180235063
O           2.10996489778823   -2.69353128240287    1.10956628774274
H           1.60451141313297   -2.70885902496815    0.28783144511699
H           2.53849150531624   -1.82459406054708    1.11658239467749
N          -2.96439662685879    0.16121173489879    0.13373347313057
H          -2.16952677320620    0.39601779734028    0.73833522093410
H          -3.40426277054620   -0.67533418936568    0.49402305198992
H          -3.63263992472189    0.92006516807042    0.16968214251631
