    23
        -45.37675818  Gyration_radius:  2.29609332531 Dipole_moment: 6.054
 S          -0.34259686231600   -0.28684892489909    1.33861873480636
O           0.27319181570608   -1.48996084096405    0.79481178219219
O          -1.46783767340716    0.14419508963173    0.50063210464386
O           0.62079948401653    0.78147371323287    1.53069233651447
O          -0.96962725494446   -0.64495640305628    2.72508196130791
H          -0.18215695910952   -0.92001529295102    3.23381147668502
H           1.37629448832619    1.16261255098742    0.02044932031804
O           1.53674942057487    1.28881108232293   -0.93532851976561
H           1.49746936358013   -0.29147545039766   -1.54439420423904
H           0.76209729140390    1.78399819307504   -1.24311458950524
O           1.11760940310931   -1.19690115179057   -1.68088025345260
H           0.94287573413259   -1.50738482516866   -0.76324312888756
H          -0.25172125474197   -0.87288700006875   -2.02881536101164
O          -1.09296979813284    2.19670570058872   -1.17662867786926
H          -1.21208207443489    3.07774996895513   -0.81893967166386
H          -1.26068375766370    1.57786311788157   -0.43500953714279
O           1.58059267008260   -1.15627228244825    3.17619046989254
H           1.70690650228695   -0.26184839940564    2.82976363882449
H           1.51768491109678   -1.71650105142621    2.39149701800739
N          -1.31135404509376   -0.51760564505154   -2.02383833011901
H          -1.95391695018676   -1.16589397871571   -2.46496564878089
H          -1.37087734561035    0.41312324309037   -2.43717496755590
H          -1.51644710872709   -0.39798141350079   -0.98921595307876
