    23
        -45.35714513  Gyration_radius:  2.39106683415 Dipole_moment: 5.577
 S          -0.94195079186450   -1.69249256964660   -1.20013614900084
O          -1.13270251555638   -3.10105680708195   -1.31593297944327
O          -1.72479668810325   -0.85317819125999   -2.07210483109461
O           0.61343835854296   -1.45204215983311   -1.63469020137408
O          -0.95377835731419   -1.18323316488709    0.18402551807680
H           0.22137870784706   -1.31031682177056    1.06040988828438
H           0.68275084019163   -2.17168030195473   -2.25124903583165
O           2.08476869929559    0.37181428948642   -0.14691374379717
H           1.92912487075703   -0.16043800286508   -0.93833888382586
H           1.29792244798829    0.97186148141328   -0.09609918262117
O          -0.98323724380206    1.63134992351255   -2.47298763942476
H          -1.74139868789463    2.08018633986842   -2.84977862045263
H          -1.24356420664479    0.68204904259133   -2.40708295847870
O          -0.34243459327086    1.41010523251046    0.10411406542587
H          -0.55647833865949    1.73702194515531   -0.79440172029893
H          -0.72223205684326    0.50597674060422    0.11718880004292
O           1.06332999717351   -1.09543295469050    1.63042423026813
H           1.65243098756031   -0.57264698980664    0.94937842274197
H           0.70770021952321   -0.31453249641120    2.27635507176444
N           0.13958918497455    0.90388839937254    2.89771964380386
H          -0.68942109295378    0.71514573583898    3.44591172778031
H          -0.13575841007965    1.42936688996514    2.06819454959353
H           0.77531866914670    1.46828444987655    3.44599404787992
