    23
        -45.35358683  Gyration_radius:  2.42518335471 Dipole_moment: 3.589
 S           0.38849500413110   -2.06452299201236    0.95399220513030
O          -0.94469660603962   -2.26632564310926    1.39987018727463
O           0.95228766504252   -0.75739269844103    1.14643779336866
O           0.55773799194615   -2.48156547726205   -0.51520700729822
O           1.31940170186764   -3.10167501067099    1.66442653159236
H           2.21879849078308   -2.84737147837029    1.46832838635535
H           0.02400032080918   -1.82860370165780   -1.10774433070302
O          -0.81219116236145   -0.81749570561005   -1.80871581190470
H          -1.43942821418231   -0.49060219286499   -1.06066525798896
H          -1.37496697156527   -1.22436414941763   -2.47114939025202
O           1.60071316502569    0.60685236046332   -1.19457735882830
H           1.51936250466234    0.20333155059087   -0.31874430405568
H           0.85280892582660    0.27041549976971   -1.70054155216113
O          -0.76027558354718    1.48335153378003    1.47334828588579
H          -0.06245335802861    0.82675803016869    1.59140115234474
H          -0.37843706697685    2.16953751413220    0.87335827279895
O          -2.26990448139100   -0.20188540206325    0.16683164652775
H          -1.83405152961197    0.54939138511191    0.65744879837997
H          -2.12491523221151   -0.97423788150227    0.73236833556761
N           0.47971175048230    3.13589867569063   -0.29338063014852
H           1.03311568177828    2.40029855140704   -0.73381282874930
H           1.11979786257827    3.81870066670254    0.09087383061176
H          -0.06491084899803    3.59150656517208   -1.01414694374252
