    23
        -45.37247382  Gyration_radius:  2.25542060244 Dipole_moment: 6.192
 S           1.43815872848697   -0.70787893266490    0.55786748181605
O           0.17416075975816   -1.34734494989269    0.16394128805218
O           1.82780683196030   -1.07031895143758    1.90187201769929
O           1.08803420960834    0.86091468324138    0.60384881586510
O           2.44315296456497   -0.83170041268971   -0.46233428419807
H           1.76030950411259    0.18195663322674   -1.53816330313452
H           0.79408178481263    1.03246821706594    1.51071986959671
O          -1.11921002817927   -1.44165060321357   -2.10862755453089
H          -1.67485577883131   -2.22155641390207   -2.07937265828403
H          -0.54138880476474   -1.49926057781947   -1.30700447771339
O           1.19007107706139    0.63710028275351   -2.20397431707178
H           0.94177749017906   -0.05411733731715   -2.82518758308149
H          -0.17820569156165    1.09615418997700   -1.48377751752764
O           0.27569581863594    0.53434550879117    3.16383497237242
H           0.84731220999682   -0.21683087034176    2.85411960786109
H           0.66860137101977    0.84675862673708    3.98077301181222
O          -1.68039181206681    0.18106003573606    1.18540089518390
H          -1.08424098200849   -0.55180103388346    0.90420138220127
H          -1.32704813597183    0.46560297537033    2.03712190581300
N          -1.22442401392700    1.07747020262257   -1.26754071324371
H          -1.70226672244797    1.89476701019591   -1.63004051731422
H          -1.38605263237535    0.94204408731465   -0.23108286446932
H          -1.53107814806447    0.19181765014380   -1.72659546770854
