    23
        -45.36367221  Gyration_radius:  2.35224897932 Dipole_moment: 2.534
 S          -0.51064017680400    1.35718282371054   -0.43714282980682
O          -0.63775504671196    0.78292155829974    0.88181359247663
O          -1.71428010190426    1.38502643230797   -1.20368721515253
O           0.59175292299452    0.59752615024275   -1.20587466283664
O           0.05250013305755    2.77732780463611   -0.34026177829875
H           0.97679081875982    2.70724103989134    0.06987858503107
H           0.82286308277916   -0.31359165956268   -0.81418050181917
O           1.13420031613018   -1.71417801102064   -0.27623278897000
H           0.20761518391028   -1.93960365269511    0.10456441633899
H           1.25424467319574   -2.27420566527157   -1.04564266565703
O          -2.36072538262521   -1.12383825141221   -1.96823882662801
H          -2.15762824165936   -0.20135952386601   -1.72536194332608
H          -3.00653269862154   -1.07046595764692   -2.67492082556947
O           2.32191909004008    2.47008506139226    0.79126165639500
H           2.25725632982559    1.55715967518150    1.18146639408288
H           2.41573499296195    3.07373348598131    1.53163284724115
O           1.76864145140398    0.11160776413962    1.79450387335674
H           0.81808748772403    0.29689346072541    1.66290445335617
H           1.95141657361937   -0.65241032885265    1.23528746166586
N          -1.28687043293017   -2.01945158086181    0.56264170799580
H          -1.37902386959178   -1.10582198451822    0.99841675449505
H          -1.69118048769580   -2.71536502743445    1.17526679389777
H          -1.82838661783502   -1.98641362337841   -0.29809450819066
