    23
        -45.35292097  Gyration_radius:  2.41245114471 Dipole_moment: 1.642
 S          -2.02600991536429   -0.70829538074404   -0.17933911265667
O          -2.02379505775555    0.68324794284175    0.11407595313223
O          -0.96781337337303   -1.48126235064111    0.42340680878604
O          -2.07925879512238   -0.99017789796070   -1.67177213895431
O          -3.38600007323605   -1.31609577087839    0.30133032751984
H          -3.31944316967444   -2.25574706602356    0.15002685416238
H          -1.22532723919899   -0.62848987921449   -2.21933391274408
O          -0.03540931564665   -0.17208257905598   -2.80821142963951
H           0.64264453999248   -0.71903225644683   -2.33370850366430
H           0.10048361888578    0.71709053699307   -2.43751527944493
O           1.42576896863732   -1.14418478413072   -0.85613807734721
H           1.43883626074107   -0.19583892591796   -0.63259031076260
H           0.66239486557596   -1.49731746197988   -0.37338111750148
O           0.46880403194607    1.44777224155341   -0.69485408206424
H          -0.43956899840614    1.36147158679635   -0.36937095291387
H           0.96936348625914    1.81257476897766    0.07560262331522
O           1.03975206418764   -0.76825241456217    2.23353109870078
H           0.22219335176684   -0.98519342586537    1.76244471469150
H           1.72904264644904   -1.28583251316273    1.80919238545763
N           1.63538113177296    2.04535243811751    1.65956056907590
H           2.61652291991329    2.25106387092885    1.79942605546329
H           1.45191557976580    1.11850090520399    2.04524415244617
H           1.09952248187369    2.71072840517416    2.20237336495591
