    23
        -45.35292096  Gyration_radius:  2.41230436042 Dipole_moment: 1.640
 S           0.31386172782731    2.02855249072784   -0.65170297502604
O           0.97837300762913    1.45213164652182    0.49147083577362
O          -1.05260459637164    1.67260906463716   -0.82089375335432
O           1.14097955683354    1.78180492776075   -1.90244448903037
O           0.40942869006967    3.58509593980801   -0.51684205178680
H           1.32674559931671    3.77535506640685   -0.33640291691503
H           1.19717317536375    0.74727141256220   -2.19703127631596
O           1.64166985975505   -1.17181453711094    0.09957847333148
H           1.62172187322258   -0.23972157520616    0.36664610840933
H           0.70383537016924   -1.42002465154192    0.00874861425629
O           1.24950486862064   -0.63423778297090   -2.43961715606512
H           0.33094586941212   -0.93878229216932   -2.33940059992457
H           1.68679192180811   -0.96421414907391   -1.61261523878631
O          -0.93827256596321   -1.05374880962787   -0.89743496801153
H          -1.47131871185322   -1.42815099605817   -0.15387302729803
H          -1.16478863401860   -0.11183856929708   -0.90213673674616
O           0.01625624871200   -0.14229551174235    2.57635642899824
H           0.78205705417578   -0.72181618867997    2.60498924101739
H           0.23756361944969    0.55252114636170    1.93945079539607
N          -2.17285113653752   -1.70501429868026    1.40752940622672
H          -1.52632143439327   -1.15171024385430    1.97085046869399
H          -2.22288872991475   -2.63133741554313    1.81244052864092
H          -3.08786262332297   -1.28063466323605    1.49233429851804
