    23
        -45.36293387  Gyration_radius:  2.4343775876 Dipole_moment: 4.385
 S           0.61276899408254   -0.99825393876475    0.20614277340580
O           0.70958163985853    0.15317182594257   -0.66360728719920
O           0.17221006237373   -2.19065636708251   -0.44207529459036
O          -0.31710205422654   -0.62406124007439    1.39001303880114
O           1.94117430840594   -1.24112560902269    0.91038271482433
H           2.05178400881788   -0.49754718197163    1.61231928409188
H          -1.27730568516791   -0.53410006076747    1.04718164654028
O           1.94132733869089    0.64961314223229    2.58232774925523
H           1.86462737389076    1.43833012164057    1.96640226197402
H           1.06369315952890    0.50028400696824    2.94569615333411
O          -1.68319019889362    0.26884641308478   -1.93305524339195
H          -1.70439155570131   -0.58841817843177   -2.40323614994990
H          -0.76293350951113    0.36428318137482   -1.63232220493727
O          -1.26555803498732   -2.27512432293561   -2.74321059267138
H          -0.64535107144635   -2.54841584841154   -3.42118074234705
H          -0.80902216220133   -2.40119801894807   -1.89186839543328
O          -2.62069297525057   -0.27045992357874    0.41490665946897
H          -2.38260125083157   -0.07333015287058   -0.54260839769669
H          -3.06473392778146    0.51091421818807    0.75119127680523
N           1.58845621260050    2.48236193548371    0.71033328927501
H           2.43295166688939    2.89410755102707    0.33395964899560
H           0.88462112342136    3.20852208738064    0.75282690621781
H           1.26968653741061    1.77225636955122    0.04948089519797
