    23
        -45.37099128  Gyration_radius:  2.40302648665 Dipole_moment: 3.738
 S          -1.21201612642639   -0.74565300242891    1.68514983267922
O          -0.98845170511915   -2.12696843822052    1.29176167145700
O          -2.03221557922453   -0.00796697326361    0.73501071860741
O           0.02229419112294   -0.05367880445724    1.99992161887969
O          -2.06302574376981   -0.79550459271593    3.02812878481061
H          -1.48695569857227   -1.27829787883463    3.61241925078209
H           1.04403708757601    1.21969233488317    1.46922758647370
O          -0.30588612809421   -0.09936453662833   -2.51566136858585
H          -1.16141150892348   -0.41548054762285   -2.81151573883012
H           0.02271322349575   -0.77910607390544   -1.88699271858517
O           1.44336821622708    1.86117721059924    0.84509628381988
H           0.20063455115669    1.94448148849525   -0.03553134718987
H           2.05323997796500    1.32206112831020    0.30206478474515
O           0.59004068202625   -1.86848644596467   -0.69664216593076
H          -0.01779234549177   -1.94233403348497    0.09429432819621
H           0.86881786903992   -2.76669815204876   -0.88707830373827
O           2.51230285748055    0.09561737571608   -0.90480549937223
H           2.30212987093206    0.30263813492937   -1.81798839884985
H           1.93320657723548   -0.64750421760257   -0.66083469367833
N          -0.71169373733114    1.77666031346941   -0.59461471733684
H          -1.31093288310235    1.12514619840527    0.00516389182105
H          -0.50193888959420    1.23838331213168   -1.46069867625738
H          -1.20046476860854    2.64118618023802   -0.79587511391299
