    23
        -45.37184819  Gyration_radius:  2.26821486421 Dipole_moment: 3.141
 S           0.22792310646155   -1.13734955394354   -1.34839630067188
O           1.24975690855022   -0.10879353764934   -1.27318543447911
O          -1.01170335403234   -0.68529839077825   -1.94683708361340
O           0.01925750316612   -1.76936716721966   -0.04880862550802
O           0.78234731286804   -2.26030643327870   -2.31911188645320
H           0.02128266998212   -2.46059048713256   -2.85437878710095
H           0.32307727841210   -1.00478352735431    1.23379114863679
O          -1.47385717017963    1.13768506501617    1.43504798659607
H          -1.12273760064525    1.60462944041302    0.64114089585211
H          -2.09976891381311    0.46746165538291    1.06627807801447
O           0.45360064320315   -0.33332704011033    1.98959477082315
H          -0.38468814825515    0.32457813088114    1.87363092103699
H           1.30933114284679    0.24269697499301    1.68980125396366
O          -2.64031050715749   -0.86711692173655    0.15203529150303
H          -2.26218430790808   -1.65675585271496    0.54860030575162
H          -2.16775817083144   -0.77111699532091   -0.69955433778444
O          -0.46105489505917    1.89398584607829   -0.91265312309779
H           0.24104976495163    1.24064795111268   -1.09876397348774
H          -1.15701878397339    1.67789583901263   -1.53966404548334
N           2.37591719562394    0.99999716923800    1.02484097852389
H           2.22132411637157    0.64861145664296    0.07588298614504
H           3.33359931585308    0.81619158112971    1.29227049513443
H           2.22261491351962    2.00042480739068    1.01843849573334
