    23
        -45.36638235  Gyration_radius:  2.37493902527 Dipole_moment: 7.402
 S          -0.92911634837898   -0.51879410417356    0.51545314018202
O           0.16387780756203   -0.29782512165791    1.44344733509349
O          -0.64202259992538   -1.45561281511811   -0.52711234206904
O          -1.34069575626159    0.83515863833773   -0.07020896929335
O          -2.17438908080607   -0.95376913154314    1.29083593533376
H          -2.25061938810191   -0.24554077870054    2.02875744846602
H          -0.59899777963010    1.18562785103365   -0.76192939368566
O           0.47327248021075    1.48708738000311   -1.63102026391710
H           0.37234444892792    0.79717728168498   -2.34838758451860
H           1.27360389190989    1.23275530976572   -1.13521486452195
O           0.18601311574115   -0.61266044879904   -3.16042042000555
H          -0.55179165692102   -1.01439448455971   -2.68895019990567
H           0.96570050324220   -1.12243499958347   -2.85413276634472
O           2.30733741671239    0.37392898783980    0.06638852230208
H           2.99753600281325    0.71185039762263    0.63954952770077
H           1.56948245292301    0.08391199444111    0.64932864940759
O           1.91949953661227   -1.90767537252312   -1.54858276071702
H           1.08339682694373   -2.07530254263239   -1.09059915296043
H           2.33460771114097   -1.18444727628041   -1.05957365168258
N          -1.91003364204670    0.97274629931367    2.95180824525812
H          -0.90589124584716    0.86497165658889    2.84940577217770
H          -2.15231518927177    1.00607816615939    3.93313933759845
H          -2.19079952755918    1.83716311278666    2.50801844612323
