    23
        -45.35466097  Gyration_radius:  2.35952173048 Dipole_moment: 1.538
 S           0.79059441432545   -0.89307753725383   -0.88740168538608
O           0.42634443791522   -2.10701363001825   -0.22261065506622
O           1.89262011021733   -0.96754136603034   -1.79020252610179
O           1.12029822810522    0.18953796245567    0.22509131779545
O          -0.44807528664313   -0.28501990244188   -1.53503749703188
H          -0.25370511054847    0.69462170882550   -1.86913239518455
H           1.94172601426335   -0.16666908351831    0.62329921383714
O          -0.49128067068628    2.56692263583595    0.36993911885357
H          -1.30244983053569    2.00606511999782    0.45508738239746
H           0.22415763929491    2.02137032452546    0.71219143217787
O           3.08371845408239   -1.50353807847575    0.59491997789063
H           3.24443407308587   -1.43635080374506   -0.35648920316126
H           2.52744832816314   -2.28145008174902    0.70647601707189
O          -2.39083069125152    0.71115327305603    0.34929251627942
H          -2.12877068565174    0.07014241533627    1.05179490023165
H          -2.14918422939451    0.27139076823220   -0.47218689110547
O          -0.11729692277963    2.11153056334487   -2.13843984945103
H          -0.21459292679617    2.44808772505733   -1.19042602393127
H          -0.88260492379283    2.43277745705833   -2.62213613998286
N          -1.35714935738795   -1.24906096002326    1.90875538340867
H          -0.75887169987313   -1.01160225314641    2.69022255117588
H          -0.76740064350659   -1.64527802093453    1.17824300277743
H          -1.98912874056577   -1.97699824644609    2.21875006256339
