    23
        -45.37078300  Gyration_radius:  2.26772793663 Dipole_moment: 2.642
 S          -0.64739193940442    1.72716888691461    0.11732850643410
O           0.02254003136945    1.12903881025086    1.25833802686636
O          -1.53234920064455    0.77211329486447   -0.54807470675793
O           0.25402403352762    2.37165302203714   -0.81243594679784
O          -1.57936542342404    2.86241911681992    0.70371331612243
H          -1.72179175213749    3.40894875125733   -0.06214052942817
H           1.26745610179111    1.33143460283670   -1.64169542149824
O          -0.31547190220481   -0.96158045978117   -1.90533570252686
H          -0.04650584716862   -1.67374921892780   -1.13752228933044
H          -0.91678628162161   -0.28232636164663   -1.42319756271551
O           2.09819041326616   -0.33727770598153    0.65604359331268
H           2.78124590369140   -0.21291991815921    1.31646096870866
H           1.34479803376931    0.24444241604832    0.92651319267428
O           1.72640209762575    0.50805218800853   -1.92879175060987
H           0.55806497406008   -0.41745253157853   -2.08112606733647
H           2.17339906676012    0.18194701666235   -1.12935846958728
O           0.36094791916534   -2.36749117146567    0.03171237105553
H          -0.36781414890875   -2.10803351431756    0.67372458803731
H           1.13907251683306   -1.85453443536200    0.31435570144099
N          -1.48434483977189   -1.27479595740867    1.55906332504897
H          -1.77780959077556   -1.55347851145578    2.48664769602635
H          -2.31404827286793   -1.12556923483912    0.99749401381945
H          -1.02246191291824   -0.36800908478254    1.62828313704485
