    23
        -45.35179274  Gyration_radius:  2.40224810449 Dipole_moment: 3.909
 S           0.50100061897977    0.79092825673373   -1.94479244720504
O           0.55199089137259    0.71864364724235   -3.35323622789983
O          -0.36177091246266   -0.18233821671844   -1.29109849623079
O           0.00269590379708    2.20458674788975   -1.50000852239243
O           1.90209829618312    0.66934194964505   -1.34850710290164
H           1.96243330620943    1.13394207553286   -0.42782223495075
H          -0.44051888324274    2.12877729589990   -0.63152899683325
O           2.02577947289352    1.79887845626813    0.88819116378194
H           1.43111329048435    1.31322717977468    1.54603315179140
H           2.91935691114975    1.72341910105401    1.22913640066837
O          -1.48695874980090    1.27974554633807    0.53755232914188
H          -1.21179698503592    0.53808325661799   -0.04578877500730
H          -2.42500123808949    1.41916785274743    0.39623747827501
O           0.43486821010716    0.45482698635831    2.40683246807160
H           0.55148253258333   -0.42523213617004    1.97692733493826
H          -0.41196856591716    0.79142511232676    2.08671527450328
O           0.66709808666659   -1.66280857285555    0.81488646860755
H          -0.08416808041507   -2.27897149133789    0.79021059559980
H           0.59124750068097   -1.18063776026850   -0.02088698663534
N          -1.63394081629968   -2.78650331011226   -0.29212213752232
H          -1.43974410892748   -2.01523585319800   -0.92441047840509
H          -2.62904588244523   -2.79097230382984   -0.10422055638736
H          -1.41625080854195   -3.64229382991566   -0.78829969302629
