    23
        -45.34861772  Gyration_radius:  2.50365573187 Dipole_moment: 5.945
 S           1.43749475361245   -0.79973343968449   -1.18196042120562
O           0.16682771964468   -0.36299602735474   -1.66582236184063
O           2.60181912435491   -0.19214055022047   -1.71211854325558
O           1.53351968252261   -2.35401098886233   -1.37278261531116
O           1.46927838121808   -0.65621803121501    0.37599198964624
H           0.72818199135448   -1.22262657640033    0.68771332366601
H           0.73732556225457   -2.71544275916843   -0.95541641509994
O          -2.66175846946669   -1.30656378317619    0.87606658070317
H          -3.14527460959104   -1.53056952442554    1.67331123046624
H          -2.44907493988864   -0.33829397341526    0.95249540641926
O          -0.36991201480277   -2.49561297096732    0.56674283488610
H          -0.39188402649535   -3.16297058670227    1.25669887239624
H          -1.26694475784013   -2.05114422285365    0.58204784373546
O          -2.13003561532036    1.23963374404086    1.25948856885052
H          -1.52512337247905    1.56210891009708    0.53448247252676
H          -2.90797251798275    1.79648085105837    1.19474136150943
O          -0.66140181293538    2.06889844917873   -0.73762390248065
H          -0.53601172397563    1.24752776806426   -1.23755540327465
H           0.24881220829685    2.34162897019201   -0.49364151398045
N           2.01402487394961    2.30331643115500   -0.18948503672037
H           2.61633912465704    3.11072166236000   -0.29770226898845
H           2.32028335377061    1.59615572175898   -0.85118686437922
H           2.17148707527937    1.92185089650562    0.73551487189308
