    23
        -45.36777853  Gyration_radius:  2.32620539891 Dipole_moment: 1.006
 S           0.20022212052474    0.31437283223195    0.89600893304742
O           1.42078078452588    0.52449084760209    0.12217465350773
O           0.17725844275196   -0.96520186137553    1.57315249579235
O          -0.98210177780053    0.47668031754879    0.03012324013570
O           0.14908006569510    1.45103296897391    1.95140050061262
H          -0.70523463929906    1.25525109625625    2.42542714577725
H          -0.78398749472337    0.52937385461313   -1.37280368805896
O           1.31813342438710   -1.18933006414535   -1.91724918222946
H           0.85878998908785   -1.94857694970494   -1.48646397113623
H           1.63263250526742   -0.64851861234671   -1.16326110258327
O           1.33249863987322    2.34225417959267   -1.76818176092983
H           2.19501375238012    2.35835791244944   -2.18806789661311
H           1.43716327409062    1.81755766445915   -0.93878461358961
O           0.09242845310952   -2.85551491851097   -0.26890472188637
H           0.05184887174247   -2.18605183044244    0.45144799734517
H           0.55891449974225   -3.60864640720026    0.09867556889068
O          -0.40706731312934    0.55825359299587   -2.37000874441284
H           0.27485217506932   -0.25619912441158   -2.34987602104417
H           0.19334013281061    1.37539094567601   -2.33843381404393
N          -2.08739687031824    0.36702826526994    2.70311219920272
H          -1.59273506227882   -0.51902805521646    2.68383057919266
H          -2.53810184657347    0.46923871966374    1.80132510678750
H          -2.79633210688934    0.33778463606621    3.42535708629054
