    23
        -45.35507287  Gyration_radius:  2.28294346064 Dipole_moment: 2.835
 S           0.20728200723309    1.36144183940585    1.14606267428640
O           1.25882809820705    1.88482884811528    0.30822778107561
O           0.56685778453990    0.04420449723744    1.69452179693001
O          -1.08931651276198    1.30739649050588    0.49624804223978
O           0.04966079722060    2.33199405471397    2.38003297938243
H          -0.83882360934930    2.16536316967463    2.67982052156088
H          -0.66372797927584    1.06699772838597   -1.07951280607793
O          -0.05209404641625    0.98024358920654   -1.85329067144488
H           0.59201870442524   -0.32423722227323   -1.72566556544632
H           0.63051474790856    1.63317528202675   -1.64522052664793
O           1.08844023594757   -1.21479922109931   -1.43701841555504
H           1.87965049687296   -0.90310059053361   -0.81579309082111
H           0.44517544975786   -1.67816358680527   -0.78733279018696
O          -0.39391635506877   -2.02808426630043    0.46002652991419
H          -0.17207578995451   -1.23496396390248    1.01402674576192
H          -0.15640181713889   -2.79918416225940    0.97894145184065
O           2.71498474134275   -0.34562329461935    0.27345922352305
H           2.85357045967211    0.59070168571332    0.07463770184286
H           2.03656230883389   -0.30789971572512    0.99021011645600
N          -3.01652434949650   -0.68755289116561   -0.75049224997095
H          -2.70448850469554    0.11254198713374   -0.21062632741374
H          -2.80318399947085   -0.48772909855122   -1.72089281619610
H          -2.43299283833221   -1.46755113888827   -0.47037030505669
