    23
        -45.35203808  Gyration_radius:  2.38878719621 Dipole_moment: 4.647
 S          -0.47726060634523    2.02789557833168    0.10667930591172
O           0.27680400801848    1.68342968851731   -1.05036010690093
O           0.19677494179219    2.51423387507869    1.26603041964008
O          -1.42611471008515    0.89172821041050    0.50196130142213
O          -1.49844269098915    3.16282631745331   -0.32973501574947
H          -1.68782644819268    3.67184798219863    0.45550465850951
H          -1.43848829084152    0.08606556904326   -0.16019851235995
O           0.62936280059779   -0.63445697370878   -2.40924851815073
H           0.63384934939362    0.30929963105287   -2.18413128994736
H           1.38402886006762   -1.00667105790181   -1.89532268735044
O          -1.50443527918014   -1.05153557384415   -1.08598101576143
H          -2.21101611537276   -0.90413679954064   -1.71826079021416
H          -0.63426052478578   -0.98453277141763   -1.62315543443358
O           2.61236903663636   -1.22569566331846   -0.73700030234095
H           3.41266547973694   -0.72552221513128   -0.90409164229158
H           2.19646920609667   -0.80766212585267    0.04746021315165
O           1.39723117558118    0.01320806303558    1.31083593521813
H           1.09705050292524    0.91886789042473    1.43760582053595
H           0.67176595615260   -0.58487978546044    1.59840575404933
N          -0.67957731628836   -1.69798557701202    1.84792748628632
H          -1.44675443373927   -1.15021498152536    2.21532700902933
H          -0.58239033696575   -2.53555863540712    2.40690024253378
H          -0.92180454426751   -1.97055064529059    0.90284717931861
