    23
        -45.36608432  Gyration_radius:  2.33900072386 Dipole_moment: 4.582
 S           0.57287290445926    0.87723895110643   -1.11664953463863
O           1.12522364687446    0.72725735833423    0.21523450199140
O           0.17372647532684    2.20871407310664   -1.48041794302594
O          -0.45808733046513   -0.13199717215246   -1.38031448577859
O           1.78350026760758    0.49857971693375   -2.10065071410831
H           1.62993315296479    1.07159600545895   -2.84518461629700
H          -0.45126549077265   -1.34449792624517   -0.51016230345237
O          -0.24544142497733   -2.06613134273846    0.19523782773994
H           0.80234454007120   -2.15257727398810    0.08335281391172
H          -0.34911390313699   -1.52070092792100    1.10744947582720
O          -0.26689750909692   -0.50225843519000    2.12830319366157
H          -1.12404543019091   -0.01340412484651    2.16384553382834
H           0.33745027384286    0.08664485827538    1.63259585926083
O          -2.42524618047801    1.02113767967547    1.92220409405194
H          -2.48219249666158    1.82322188813165    2.44319676914429
H          -2.45350369751886    1.30487851388672    0.97922227906817
O          -2.32378268113114    1.74628259618797   -0.65020439855630
H          -1.48544894264490    2.16836335009761   -0.90987213825822
H          -2.30171519989255    0.89905560183535   -1.10774232175890
N           2.25458817072498   -1.80533083078056   -0.14856590358700
H           2.95945213983671   -2.14388743816639    0.49379096623089
H           2.14793716906369   -0.79603883623639   -0.01978047463235
H           2.57971152621293   -1.95614629473808   -1.09488849060665
