    23
        -45.35506507  Gyration_radius:  2.5030688898 Dipole_moment: 1.380
 S           0.45609142540587   -2.08373525983733   -1.01441584938874
O           1.37755908712498   -1.03356001035337   -0.67250197139092
O          -0.16072004150506   -1.96119550294030   -2.29961397902081
O          -0.56927741961722   -2.28472043817049    0.07684729029042
O           1.26416600022183   -3.43555400808698   -0.97331131542772
H           0.71022876533543   -4.08980773817488   -1.39396338000259
H          -1.32416280537062   -1.45610547868114    0.04769498065835
O          -1.76036078939978    1.19443880470155    1.96154699722828
H          -1.09282325661159    1.77489707253939    1.50183084671374
H          -2.49733045392380    1.76191626576246    2.19189225122353
O          -0.31154912131512    0.77098363587568   -1.72662058850914
H           0.44295041676144    0.27349857351749   -1.36026359678373
H          -0.49091222667908    0.34860975720659   -2.57239827997151
O          -0.03182766975231    2.55740593539947    0.53427748770380
H           0.80647490512678    2.12384863772579    0.83094599965519
H          -0.16369975335110    2.25619494487169   -0.37168400934637
O          -2.09303504764145   -0.37763580784468   -0.07961703277475
H          -1.59168944432416    0.15554124253966   -0.73912772473849
H          -2.02939733154512    0.13752823147844    0.78039450539321
N           2.08686164034020    1.04667219021000    1.26740057878754
H           3.04298638911034    1.36596370305127    1.17490015520057
H           1.95990478183679    0.26550288646515    0.62830127006721
H           1.96956192979357    0.68931235273548    2.20748538442972
