    23
        -45.36639241  Gyration_radius:  2.27905741778 Dipole_moment: 6.768
 S           0.82058190549985    0.24983438151504    1.82756707644904
O           1.45916012195684    0.76199709458566    2.98837118037659
O           1.66660972822541   -0.52487902931741    0.92072663594331
O           0.31688753121820    1.49793576800870    0.95445009094480
O          -0.42862410716344   -0.49503247909026    2.10569353542444
H          -1.50891314238563    0.15473644536089    1.50360493677479
H           0.57136215129976    1.35404000635352    0.01886803665326
O          -0.09389340124231   -2.04932461406449   -0.25401579133010
H           0.57977011162213   -1.50327400779702    0.22189739716585
H          -0.58151776259343   -2.48430992318806    0.44794193510459
O          -1.55804256493789   -0.17910816690134   -1.44702740017962
H          -1.07607968041823   -0.97823106047446   -1.12152632536701
H          -0.85532120211831    0.41851328213801   -1.74573287311093
O           0.80240812615904    1.22591363894600   -1.66805061225389
H           1.26965225208092    1.99263883503234   -2.00288003431138
H           1.43913088480823    0.45965341778876   -1.73483326519445
O           2.43230712692416   -0.81808084725536   -1.59963386944614
H           1.95406436891004   -1.63173909424562   -1.78311773282654
H           2.44344285699318   -0.74748910452011   -0.62492733204158
N          -2.27575300323434    0.70741004016875    0.90119044097058
H          -2.10109674715200    0.38839330309092   -0.11188297363214
H          -2.05575917846815    1.69520897069558    0.99341242459494
H          -3.22037638594989    0.50519314317562    1.20990451928587
