    23
        -45.36378501  Gyration_radius:  2.31733710602 Dipole_moment: 1.869
 S           0.50875470993032   -0.10635075933184   -1.56750939327337
O          -0.20869048991499   -0.24686723230242   -2.79166087500322
O           0.38356962720503   -1.23627323721921   -0.66768877222103
O           0.00601413243004    1.16122247750743   -0.81650814180031
O           1.97580279279477    0.19119293057792   -1.81127190876277
H           2.43366801580253    0.42921783070931   -0.90511192178763
H          -0.97233077014086    1.24405679522784   -1.06166785725614
O          -2.39767013792469    0.88316474434577   -1.59393494345753
H          -2.05674441834084    0.49895347296582   -2.41384218638549
H          -2.59017411346242    0.12972522192589   -0.99958807399044
O          -2.18149229561131   -1.27000815325065    0.02335345358282
H          -1.22488837001094   -1.34719890640896   -0.17720383364653
H          -2.55639549054885   -2.14163704655367   -0.11641902278412
O           1.47828205386502   -0.85315381424596    1.77909011369072
H           1.11391993359631   -1.25535905199666    0.97328164684137
H           0.73270004400449   -0.30769833219109    2.12418470076244
O           3.04186312221196    0.66116402240680    0.41103200649330
H           3.91675283366079    0.26602890268693    0.42811153086353
H           2.47040645701341    0.11690717718084    1.04620388223397
N          -0.75015570504241    0.65018152482020    2.11431458873794
H          -0.50541595365408    1.31694743953499    1.39060297524392
H          -1.13906761707448    1.16111864944653    2.89659579577878
H          -1.47870835078728    0.05466535416439    1.73563625613954
