    23
        -45.38328756  Gyration_radius:  2.28344246671 Dipole_moment: 2.093
 S           1.23851600174818   -0.63415203629046   -1.26856508756973
O           0.38249549736434   -1.60528826460418   -0.60540874030380
O           1.88505332019207    0.25501816312646   -0.30671921119503
O           0.57224466382723    0.09605385610922   -2.32391706978090
O           2.39027577871877   -1.46937971899252   -1.96205255544780
H           2.64200845096132   -0.90068358288207   -2.68229140467436
H          -0.84771770291596    0.96593033953491   -1.95330687264207
O           1.18464639781326   -1.30683629094211    1.92223805075116
H           0.89715622170802   -1.61596891358692    1.04212530947515
H           1.92591168236840   -0.72506676797784    1.73036372070900
O          -2.07905210832365   -0.92931802527836    0.00218287599623
H          -1.17434589391539   -1.22557807605545   -0.25787481314357
H          -2.64966585315254   -1.69071059972810   -0.11246853386192
O          -1.00112231960116    0.19061880818177    2.30390196006645
H          -0.22653113241058   -0.41324192152672    2.37745294676873
H          -1.59877127770407   -0.24423019055055    1.67258952087820
O          -1.56864382280885    1.38357473998992   -1.43460151304133
H          -0.67493977530405    1.87254281433630   -0.21523172776156
H          -2.05084371194114    0.64083492223434   -1.03628537171474
N           0.02359754377339    1.88010057399818    0.59008521771514
H           0.86188422038753    1.33543561571039    0.25272605343808
H          -0.40855598436985    1.31936331142098    1.39581614669431
H           0.27639979358836    2.82098125377360    0.86924109864615
