    23
        -45.37326489  Gyration_radius:  2.28500945351 Dipole_moment: 5.850
 S           0.04403759898774    1.11493749233203    0.90935846459366
O           0.26344279624429    1.28954799795250   -0.52453230753871
O           1.24533206186992    1.24418707423377    1.68792537458367
O          -0.51182693876319   -0.36179064749307    1.08115837774309
O          -1.07447011266089    1.92825003599296    1.38976146874647
H          -2.18785792684214    1.27918619530523    0.82164145156937
H          -0.10109296798877   -0.97724166788847    0.41678136042613
O          -1.56060902128503   -0.11837404105477   -1.72911827503577
H          -1.15173711918114   -0.99057305623458   -1.65880740492986
H          -0.84135323741309    0.50725294397271   -1.46526728322067
O           0.39789888494199   -1.96101319426138   -0.77475261231985
H           0.84856766444017   -2.70680667140843   -0.37476845321802
H           1.12664555823473   -1.38356617229139   -1.16654046924090
O           3.06576809298674   -0.55407699251223    1.08923856743544
H           3.89460689057892   -0.25100131581553    1.46319719317133
H           2.38841353527266    0.09673530301503    1.38624689454660
O           2.23090766738000   -0.27923292241145   -1.45885136640933
H           2.75650313716612   -0.39404338131161   -0.64222549280280
H           1.64995144551963    0.48262077085832   -1.27563222130326
N          -2.97515100560242    0.65716160265251    0.32681790917882
H          -2.50435550770068    0.27173643371470   -0.56060544715719
H          -3.79549549179373    1.21189096223004    0.10362767591083
H          -3.20812599444058   -0.10578671964448    0.95534657520383
