    23
        -45.35097740  Gyration_radius:  2.57773177058 Dipole_moment: 3.122
 S           0.70960195383330   -1.91502806425459    1.37915656262601
O           0.69083845796007   -2.06150717599486   -0.03851771648036
O          -0.37389546526378   -1.18140832609712    1.96488948640293
O           2.05181601294678   -1.35734383765410    1.86541469294500
O           0.73170937887392   -3.34344193620317    2.02339035280105
H           0.58736890649653   -3.21025078536392    2.95744781582145
H           2.28125998632312   -0.43643371340226    1.43852794668267
O          -1.31269101396092    0.26357706236135   -2.95834498386665
H          -1.44946260050839   -0.66267943480769   -3.16286350245631
H          -0.40470953705367    0.32905181591134   -2.60628468789036
O           0.97597537371744    0.24249761247198   -1.42962787739682
H           0.91097678563892   -0.68716921787664   -1.15653940138764
H           0.44306083815984    0.73110888130741   -0.76542499769284
O          -0.23324678245589    1.26245797176036    0.77028730370021
H          -0.44731840505063    0.46662843293310    1.28214283802514
H          -1.08223686188225    1.54047561505395    0.33347223091291
O           2.45268668840621    0.87170462076746    0.77344249445105
H           2.34882388399734    0.69689775050618   -0.18222889250564
H           1.64025974415186    1.35166841982267    1.01388134758180
N          -2.43217185345799    1.75701362138350   -0.68423344850970
H          -2.62351371196241    2.72208879566761   -0.92190161317718
H          -3.29351530909067    1.34338614355034   -0.34995160465355
H          -2.17161645977670    1.27670573814156   -1.54613433590005
