    23
        -45.36359485  Gyration_radius:  2.30325285019 Dipole_moment: 5.727
 S          -1.40247887351927    0.24282216319160    0.17955800695692
O          -0.23760193273632    0.68943459323357   -0.56397581351806
O          -2.03772895463403    1.26560493674756    0.94208670007561
O          -0.95823307180869   -0.92318442897886    1.10367795160681
O          -2.38186445494604   -0.44357781865456   -0.74866331508212
H          -1.84554704808831   -1.17834568618671   -1.26891046509680
H          -0.08294275189571   -0.72371406360585    1.56192628544479
O          -0.89029680985250   -2.04628000632626   -1.97099397948240
H          -0.60405268369194   -1.42964756042174   -2.68092598385912
H          -0.10000003545025   -2.14330540248043   -1.40533684427072
O           1.40232666506842   -1.43710560036450   -0.59091456096275
H           0.95962272865842   -0.56977815820540   -0.57456301956115
H           1.73159505906997   -1.57290360766699    0.30034485152172
O           1.24645085066440   -0.27541267243181    2.24529640196062
H           1.09831911075702    0.71636024115414    2.12907936236745
H           1.19344834021284   -0.45233590937313    3.18695949536005
O           0.18231723922138    0.07704826367054   -3.20075104038608
H          -0.00020290003205    0.51519479973272   -2.35207989255086
H           1.13090089525164   -0.07025852078546   -3.22494438537223
N           0.52610433808952    2.21480296280628    1.83857917221157
H           0.92495625406480    2.49830988192768    0.95150787859007
H           0.60975355934478    2.99381044019713    2.48109183317725
H          -0.46484550374331    2.05246114281797    1.66195136086874
