    23
        -45.36887272  Gyration_radius:  2.2750328436 Dipole_moment: 2.036
 S          -0.62468957678976   -0.81931917796150   -0.37729259663734
O          -1.98124476210423   -0.85571571514716    0.10654794530090
O           0.37027481007997   -1.30786053752365    0.56002220008023
O          -0.27159078611151    0.52869378005893   -0.86493760336321
O          -0.49054909821309   -1.75860890265725   -1.63682974892722
H          -1.20422207236522   -1.44524044068195   -2.22863106699710
H           1.04223374750753    1.01996426133614   -0.50467217341040
O           2.01387168825902    1.16485866198349   -0.13605630373494
H           1.84760909400918    1.01352717844966    0.93212045806144
H           2.47715584020929    0.32319826663572   -0.45091676931691
O           2.57979007933372   -1.24092611859985   -0.85005541976899
H           1.80323733732423   -1.48427618772115   -0.29707104678679
H           2.37096040020161   -1.53710958082323   -1.73821856310639
O          -2.48723420748925   -0.24132447278114   -2.45695569851582
H          -1.95754995491894    0.56142167242672   -2.41286619736612
H          -2.74525404698777   -0.42412399174392   -1.53861776571740
O           1.36904713916748    0.58496715959820    2.18693963456345
H           1.18198108385077   -0.33930783244350    1.94645560839298
H           0.45133924205388    0.98461172501157    2.24735802078754
N          -1.17040256540229    1.29015232831565    1.95682777961777
H          -1.77626672238345    1.37846316788769    2.76389138770984
H          -1.49450129044437    0.49217652693778    1.41316582792552
H          -1.30399535879044    2.11177822945218    1.37979210120927
