    23
        -45.37749252  Gyration_radius:  2.24565926642 Dipole_moment: 7.301
 S           0.67882511830798   -1.01466393775176    0.92470037394994
O           1.71716699091829   -0.59081265941563    1.82962856713607
O           0.94089470300663   -0.57810179906325   -0.45616829927946
O          -0.64235468194648   -0.49223596900107    1.33824396831416
O           0.60059307260863   -2.55376237887253    0.93978199749228
H           0.16121876851387   -2.81479804014923    0.07794795113726
H          -0.58736750859740    1.00339267923816    1.19001772916028
O          -0.59954817672425    1.12930116875220   -1.65950421846481
H           0.00473691001434    0.45384855887018   -1.24654206425201
H          -0.26572391462473    1.28577744563802   -2.54374199290975
O           2.23183680270473    1.79912754495915    0.98647203636767
H           2.16756666101020    0.91263871081922    1.42901894001394
H           2.61576364935591    1.61006604171362    0.12691408455566
O          -0.43310489202223   -2.72696684513764   -1.40821372388530
H          -1.29131351546024   -2.26709336293458   -1.26391198472048
H           0.20341209776770   -2.02348021510329   -1.59481640469083
O          -2.31779028755794   -0.96428954627853   -0.70270621796972
H          -1.86643075901468   -0.85517464652309    0.15644706028745
H          -2.07845002361800   -0.18224999903371   -1.21545476948059
N          -0.38480827956821    2.01540517283256    0.86578680821305
H          -0.64362596704348    2.03861574584507   -0.13606123772648
H           0.67323594793266    2.11128941547775    0.94495333772515
H          -0.88473270597754    2.70416691509963    1.41720804900934
