    23
        -45.35287079  Gyration_radius:  2.47503849146 Dipole_moment: 1.771
 S           0.31575297223834   -1.44203804987612    1.57095691535801
O           1.09088093499160   -0.26346099711993    1.32616386475050
O          -0.51143126646320   -1.47167641433227    2.72898954240663
O           1.34805431158790   -2.64105145600211    1.69085709082727
O          -0.51580529145326   -1.81075175074759    0.35145900989051
H           0.01980456626229   -1.68038313671566   -0.56563939235369
H           0.92037207745575   -3.31546669127021    2.21403439913297
O           0.52730938661507    0.96620706330810   -2.27958696377698
H          -0.39135955428824    1.21417309486968   -2.03306002703352
H           1.09976910929657    1.38295349335176   -1.60390569542556
O          -1.89273442811343    1.65586976683860   -1.33822003415828
H          -1.86320207217659    1.33536530533539   -0.40386941945175
H          -1.99195385236615    2.60814842037164   -1.29191073285006
O           0.66002187979055   -1.52451514609620   -1.80390346971101
H           0.65021358825741   -0.51618879934004   -2.01330338660015
H           0.10077685477976   -1.93034213757687   -2.47091548489411
O           2.04076763669493    1.77878250548092   -0.19044075775489
H           2.98366949994048    1.62787296624282   -0.27669512291070
H           1.71401964797309    1.08945521535119    0.41200308182525
N          -1.65072046631858    0.85451429505041    1.24538887878566
H          -0.64817006494053    0.86555634688771    1.39709030301285
H          -1.92743993310310   -0.11820976192218    1.30620555565595
H          -2.07859554668685    1.33518587787462    2.02830186533017
