    23
        -45.36006820  Gyration_radius:  2.39465681268 Dipole_moment: 2.651
 S          -1.11290268709495    0.07339761382833   -0.07770475558914
O          -1.17132453958054   -1.34805841044162   -0.27540466251284
O          -2.11364430854085    0.82536392945448   -0.77628950051355
O           0.29480128033087    0.58907531890121   -0.50172320398211
O          -1.13076587078594    0.35970656219735    1.42016408208141
H          -0.50960640026807    1.14283278296207    1.68526504374587
H           0.32102265833093    0.59985881934966   -1.51422805460088
O          -2.07143124812807   -0.88632371033080   -2.84458760548575
H          -1.83102600475364   -1.58559489149074   -2.22426897186343
H          -2.45539687168689   -0.19856884618560   -2.27538529208557
O           0.52248677585312    2.09818135905962    2.16209193377356
H           0.51506868761207    2.11889230805773    3.12195309255971
H           1.33500870184995    1.56993486283490    1.89452533409358
O           0.11831251387711    0.56357895869518   -3.04836612622098
H          -0.65245906802999   -0.05580252446521   -3.14411725038155
H          -0.19657067318253    1.42276679951378   -3.33992856696207
O           2.42097657248919    0.49595815352680    1.40546820600863
H           2.39493474483928    0.65055192196920    0.45758690335306
H           1.96363780414517   -0.37876890243188    1.53055793948578
N           1.01364874056993   -1.79453291728510    1.58380604760284
H           0.26845348745437   -1.69823264772841    0.89690093063441
H           0.56654158701669   -1.91079106720782    2.48511855716525
H           1.51023409764028   -2.65342549272039    1.37856591970538
