    23
        -45.35889006  Gyration_radius:  2.41533043948 Dipole_moment: 3.778
 S           0.05022333820784   -0.26958394393889   -1.39493113621420
O           0.77996678885216   -1.30461400291473   -0.69398482010474
O           0.44172291219538    1.06487407887282   -1.08852435539989
O          -1.45376899255302   -0.47327001651783   -1.15509050876740
O           0.17548571671935   -0.51450950534582   -2.91073269790354
H           0.11726471587424   -1.49778039722891   -3.02560303455683
H          -1.70738212620903   -0.26175219412315   -0.18294225683603
O           0.30060715087763   -3.08569144976642   -2.58366886434651
H           0.52151931459536   -2.74733364422097   -1.69574299586462
H           1.08358718356002   -3.53064141850239   -2.91756671758164
O           0.44186079414466   -0.65269287340287    1.95465672959208
H           0.72501023574348   -1.03272104951425    1.10909033788351
H           0.91424732434024    0.22467521007712    2.01237186208799
O          -1.92882533999130   -0.01512146602449    1.28300047546338
H          -1.00871299886873   -0.25551497524223    1.65942805081433
H          -2.55089924348863   -0.64289273960809    1.65687128595886
O          -1.05236238621836    2.68532562953785    0.69019582124163
H          -0.56517080222809    2.32140841983539   -0.06088380898073
H          -1.60948538512957    1.96758191503965    1.00832204766264
N           1.53573880176480    1.75785110952392    1.70249210731006
H           1.78149949290308    1.67162675581786    0.72166495752709
H           2.29216152395053    2.22960038614342    2.18163974831425
H           0.71571196098398    2.36117620150133    1.72993777266713
