    23
        -45.36910456  Gyration_radius:  2.43092497323 Dipole_moment: 5.376
 S           0.83474576284206    0.45327838730894    1.13021381107027
O           1.40398359886100    0.38556599983434   -0.21506549882916
O           1.74312523999592    0.01832816528177    2.15173726774317
O          -0.40311155564102   -0.55334574767383    1.11262830736291
O           0.20720112260842    1.75451956455875    1.36788340420991
H          -1.13454569399351    1.67727960463332    0.90413257310674
H           0.02155680622929   -1.43158062781479    1.34731195925076
O          -2.13113276398027    1.73893414822174   -2.07849746082997
H          -1.47413779490366    1.02002491047768   -2.25142252210141
H          -1.72554718749932    2.54042819652548   -2.41482135064729
O           1.09441130348092   -2.53131551420270    1.73881944708014
H           1.57029431184567   -2.63251383263591    0.88887447491835
H           1.57666138486147   -1.83197328542195    2.21307537113847
O           2.37957711116041   -2.03801278725972   -0.58064701680994
H           2.07022902559380   -1.10754078623692   -0.50140371703118
H           3.33695562326356   -1.99701849409060   -0.55613636114625
O          -0.19825690262046   -0.02624354044978   -2.24312464885847
H          -0.16592437619722   -0.98109239634556   -2.32131729821922
H           0.42665730221442    0.20054814074845   -1.51476868796090
N          -2.15150403147060    1.41579220837109    0.54560515084499
H          -2.87002145206792    1.90485841060517    1.06905609674363
H          -2.19558878283890    0.40779889395000    0.70378727933402
H          -2.21562803176356    1.61328037155948   -0.49592058034843
