    23
        -45.36607937  Gyration_radius:  2.38943615312 Dipole_moment: 2.170
 S          -0.52423032271140   -0.14059216344130   -0.86040603020216
O           0.36275968341088   -0.43285197011851   -1.94951538124786
O          -0.57029912627108    1.25560668594452   -0.48899283217077
O          -0.14262609219241   -0.97621742256188    0.36856394072675
O          -1.92280479830746   -0.63656646113586   -1.20488057710215
H          -2.57048941432209   -0.38902434005397   -0.44761270415938
H           0.89527166997506   -0.89681743930091    0.56815726552596
O           2.54903614860289   -1.96555445560164   -1.67228103138210
H           2.31234949952724   -2.87775723284673   -1.84655412688060
H           1.77704158363829   -1.42682491444678   -1.93353866313355
O           2.31357887210728   -0.70401004412208    0.66851967519578
H           2.41429840931943    0.21554914320928    0.32685446902022
H           2.63085554508330   -1.27656679979130   -0.06385307261566
O           2.08706810766556    1.58214675624409   -0.67114237886970
H           2.26326915150253    1.33146040827830   -1.58170826466667
H           1.11958011951482    1.67228685210597   -0.60820891033735
O          -3.44620314884330    0.11988627311078    0.67271564755461
H          -3.87418766637383    0.91745404593070    0.35252680441307
H          -2.77800386893735    0.41460564205665    1.36432898744922
N          -1.47949684100943    0.98303455638079    2.19500927438376
H          -0.99615109859618    1.32826816531995    1.36789118431365
H          -0.94839333368864    0.19455383443483    2.54291986433168
H          -1.47222305939870    1.70793088031587    2.90120685998380
