    23
        -45.36794692  Gyration_radius:  2.24568726571 Dipole_moment: 4.601
 S           0.53179072855072    0.29236418382114    1.24226832315478
O           1.81655379666209    0.49494090271291    1.85712468974654
O           0.23873928921808   -1.09493997834786    0.91624871278141
O           0.27000505284187    1.15862471584523    0.09402755540720
O          -0.53970130025919    0.73370843141792    2.34103318289119
H          -0.06293158289843    0.59283030615121    3.15296725374426
H           0.01930785266997    0.45716434255809   -1.27014826189270
O          -0.14850267567705   -0.22954269944083   -2.00061311943418
H          -0.98852216316887   -0.77177743528034   -1.58872992890195
H           0.66341141857518   -0.89698670758610   -1.86877757536282
O           1.73150308287614   -1.68957596450527   -1.24209668591070
H           2.44407598502982   -1.02955399541147   -1.08976527693874
H           1.30803771781765   -1.79585827658498   -0.36927653546032
O           3.09244598930347    0.45394407063865   -0.46361779561651
H           2.82465184572698    1.29218546239043   -0.84588511911870
H           2.78922700872355    0.47812623125599    0.46526760985574
O          -1.90341788690872   -1.36148506925333   -0.66410661560953
H          -1.24463396987300   -1.52285583922185    0.04160570133580
H          -2.40389494975189   -0.55967967923383   -0.35070354825267
N          -2.63719829856943    1.00480724790210    0.28444449861810
H          -2.96313775159945    0.97082718903895    1.24228454983794
H          -3.17174397473902    1.71494266393033   -0.20053962171123
H          -1.66606522465195    1.30778991721120    0.31698802681788
