    23
        -45.37374544  Gyration_radius:  2.28006840924 Dipole_moment: 3.556
 S          -1.66518738836474    0.09798550122206   -0.23252468019444
O          -0.99565185180719    1.35936780704639    0.03115692835959
O          -1.48692998129919   -0.83076742778341    0.88190703624203
O          -1.30608145706289   -0.50468791600276   -1.49831869830781
O          -3.20976650786767    0.42471206119948   -0.32149980505162
H          -3.53358916954435   -0.25192106867150   -0.90769721609272
H           0.39485222249182   -0.47788825715590   -1.71654982111891
O           1.34966035642654   -0.36749650713379   -1.52874531626573
H           1.36398003629437   -0.72250079683930   -0.04178701124206
H           1.49973146570841    0.60034418006902   -1.58483441542930
O           0.89477321242764    1.68944664199832    1.86973794219321
H           0.52533061612810    2.02193647475731    2.68875916793707
H           0.14581486158378    1.64429203999482    1.23317271654827
O           1.23441472188548    2.29157179552971   -1.18700606387659
H           1.69120877365635    2.59761075586114   -0.39936728325688
H           0.31844347024569    2.11802049694989   -0.90511950125218
O          -0.28639925283908   -3.02056318583598   -0.28902550463959
H          -0.91727995752220   -2.41983413555155    0.13158053620773
H          -0.29616853413566   -2.78678792438797   -1.21987839296142
N           1.15562377095176   -0.84947292826716    1.01599972132540
H           1.39337252151969    0.02299017804117    1.52086918347321
H           1.61973407128631   -1.67588595150587    1.37952854639136
H           0.11011398980040   -0.96047182353899    1.07964192096803
