    23
        -45.36427704  Gyration_radius:  2.28830107829 Dipole_moment: 3.480
 S           0.50729484977990   -1.21996959301197   -0.88133323388407
O           1.32685826504305   -0.19267411013324   -0.28176917162363
O           0.57290167058669   -1.29042104032382   -2.30753701093060
O          -0.97309397385137   -0.96511373969152   -0.44630920513827
O           0.79735384765395   -2.56404523533488   -0.24586887775752
H           0.99590752191274   -2.36379403666378    0.76121828450001
H          -1.25971911797437   -0.07211614528722   -0.80633898390136
O          -1.12341569996167   -0.70147944750569    2.42898487232078
H          -0.89632623120691    0.22994772159409    2.18185246595720
H          -1.57512566602640   -1.05974854340832    1.65908941136297
O           1.23954031698722   -1.75254318176890    2.07216444990925
H           1.72406588776860   -0.96991149713544    1.78711861891312
H           0.33979708780376   -1.42389910702084    2.36498432015080
O          -1.49791162398364    1.32790698177766   -1.50965226852669
H          -0.61864946641621    1.48405052536520   -1.94836045442189
H          -2.13854815841799    1.23931836010057   -2.21895636125922
O           0.89951015381587    1.34493553790817   -2.58421191790486
H           1.51370436485748    1.38635392052943   -1.84374462270627
H           0.86489205818106    0.39758518530136   -2.81003401533751
N          -0.28732866839227    1.61923740955409    1.34034238417983
H           0.43098315527996    1.15978581387711    0.78502620916345
H           0.13461637323678    2.40864878240916    1.81246619934620
H          -0.97730693674326    1.97794541890246    0.69086891752829
