    23
        -45.36751807  Gyration_radius:  2.34630450845 Dipole_moment: 5.623
 S          -0.61499683084090   -0.00286665934906    1.69205538018421
O          -1.60522912330241   -0.97538333594543    2.04046681290260
O          -1.03074939074295    0.92407806081014    0.63806396984214
O           0.68252508070350   -0.59990525138053    1.32953285746412
O          -0.34053822775362    0.87403730767241    2.97464105295557
H           0.25746788018190    1.57386314494830    2.70347622785093
H           0.87381640179722   -0.98305453010528   -0.11612311885385
O           1.38478025797417    1.93457289969467    0.85176389848769
H           1.62215514584856    1.04095157436737    1.14295052054303
H           0.43584450178436    1.85242527110957    0.63314528833571
O           0.90796729721947   -1.06041205292634   -1.13820972807208
H           1.42783330724333   -0.17331571098511   -1.46512562751780
H          -0.10511938657558   -0.90247005152925   -1.42423454748608
O          -2.62302360153619   -2.33505929540434   -0.00453739367495
H          -2.37144599442009   -1.84784408656576    0.80813251443191
H          -2.39078534581619   -3.25147573929527    0.15395154836097
O          -1.48300416074925   -0.49609450626332   -1.53994737650881
H          -1.49102009989089    0.17650306724855   -0.82332079388810
H          -2.02639118711437   -1.23255747266326   -1.18138676988157
N           2.03046269393632    1.12594556425062   -1.78924206716586
H           1.95434614535445    1.65507066993189   -0.91384647118173
H           1.50292096426972    1.61056660371286   -2.50409890979449
H           3.00218367243310    1.09242451867168   -2.06810728732877
