    23
        -45.36638240  Gyration_radius:  2.37531783496 Dipole_moment: 7.409
 S           0.06676406659002   -1.13925987572937    0.30550293512241
O          -0.96484196695081   -1.18346490486011   -0.68481718412839
O          -0.22457308638641   -0.28243523056865    1.43930067657772
O           1.39222813212271   -0.68258178741092   -0.31138101186248
O           0.38481133141701   -2.55066645308638    0.80338381186313
H           1.08860088435141   -2.38950121063575    1.53201464568472
H           1.26197507823960    0.24551508012790   -0.83320773347265
O          -2.73232679944611    0.92247519157871   -1.18734093678975
H          -2.28279344590116    1.55041569594796   -0.60589004056235
H          -2.41656833843970    0.05052247402167   -0.91005867142219
O          -0.87092283049283    0.42730751968388   -3.07728965546899
H          -1.67886489191260    0.76476207285267   -2.63595270259691
H          -0.80517646843264   -0.48414567149272   -2.77244741788621
O           0.90791015661697    1.45976692153972   -1.46406989082356
H           0.31002496763604    1.15458720620875   -2.20560668467828
H           0.32346519398416    1.90914739145257   -0.82571223585882
O          -0.84097752952267    2.11444962102594    0.53512874223894
H          -0.67089471215108    1.23903965770175    0.95115040011956
H          -0.85228794771550    2.76061176828769    1.24322454235291
N           2.03383117994750   -1.65315528449799    2.53963764996937
H           1.42428427546924   -0.84754185990799    2.63904180167568
H           2.88281555419256   -1.36271577184508    2.07293938038562
H           2.26351717603208   -2.02313257134180    3.45244960967356
