    23
        -45.36366219  Gyration_radius:  2.3378416965 Dipole_moment: 2.864
 S          -0.53998255961434   -0.71562856878198    1.69475138693376
O          -0.02335867656798    0.64259384083208    1.81160564966225
O           0.34308708951459   -1.59304671989871    0.95841488700299
O          -1.90829364688452   -0.71258020856441    1.18945265039209
O          -0.61299639914039   -1.30258898369968    3.16760675146305
H          -1.32528758589601   -0.81826342859157    3.57433157338190
H          -1.81325484442471   -1.47438945269566   -0.32419368039509
O          -1.28595541888429   -1.77768084846770   -1.09830280969042
H          -0.46276571959514   -2.05516467696596   -0.65959108226579
H          -1.00127096502669   -0.51552986633534   -1.79775311669103
O          -0.80388260305199    0.47102482031859   -2.10637405858708
H          -1.08878253855264    1.06006307246902   -1.29887139388541
H           0.23122957932201    0.57879481636482   -2.21317984396454
O          -1.48898408389983    1.71861233871471   -0.01548762835198
H          -0.85151580406549    1.43504694372943    0.69268821757454
H          -2.30789218753230    1.28115563260488    0.24397192017896
O           1.68533680022284    0.79225178332781   -2.21959660034367
H           1.99818371314551    0.55662577711440   -1.27234745953477
H           1.91184012551744    1.71249899845632   -2.36475051277802
N           2.32468462151352    0.25377544030201    0.23339032618806
H           1.97504452304114    0.97824534944937    0.85244609232197
H           3.28294368778163    0.05301121898673    0.49134454797915
H           1.76187291303010   -0.56882726858825    0.46044420337060
