    23
        -45.35840400  Gyration_radius:  2.27312198348 Dipole_moment: 1.678
 S           0.93283889936426    0.44135794293829    1.01190293022921
O           1.60674662456124    1.55760109756425    1.61201524210851
O           1.32370959847357   -0.87346470724644    1.45850248290570
O           1.39061639839604    0.46879437041196   -0.55443367171096
O          -0.51836443569929    0.60076384898926    0.94682923912109
H          -1.09607026938193    0.12232420376914   -0.28481168757505
H           2.33874404160898    0.55075727088147   -0.50880599321371
O          -0.20376359880719    1.72331587724473   -2.42505748258867
H           0.67672683813145    1.47847203389665   -2.71813264703490
H          -0.06465292873843    2.29342386290461   -1.62971341478442
O           0.22396353955621   -2.20158365586774   -0.67160042569213
H          -0.39375247353483   -2.64498125549874   -0.04373294858898
H           0.84616010550736   -1.76257975833058   -0.06219420259569
O           0.23576650738988    3.07264836559697   -0.13520401054598
H           0.80439576507257    2.61541567250929    0.51387371886928
H          -0.60459741793843    3.19463053576173    0.31273091243256
O          -1.26293177705763   -0.26603594725879   -1.23962392063220
H          -0.86149202947836    0.47020983987439   -1.84137734228695
H          -0.63292351984052   -1.10916981415979   -1.19202289279247
N          -1.15041557007249   -2.52916195838326    1.60307688017127
H          -0.34743990726702   -1.99038553192136    1.92304363794871
H          -1.28716288136067   -3.29342159528831    2.25309494494447
H          -1.95610151887739   -1.91893068838575    1.67164065131073
