    23
        -45.36777848  Gyration_radius:  2.32663379075 Dipole_moment: 1.012
 S           0.04939621349534    0.75306169851494   -0.60943201028035
O          -0.71838085041032    1.22485877437307    0.53980335852250
O          -0.78735467220020    0.21750567271499   -1.66283673185099
O           1.05282400372602   -0.23634296859141   -0.17577611877907
O           0.82779497639107    1.98132771371701   -1.15117877595830
H           1.33339994171832    1.58616173173935   -1.91360992535382
H           0.95343645532029   -0.76142729074911    1.13732028234901
O           0.70033501393683   -1.00416229417692    2.14454475621647
H          -0.35017201898471   -1.13915034930020    2.06018810767353
H           0.79089366210482   -0.10279599228785    2.60114272654233
O          -1.75420171481118   -0.94535929626938    1.68990616022729
H          -1.63923518147687   -0.04478166624132    1.32147376518384
H          -1.91825665648380   -1.50554527625668    0.89472700509916
O           0.57024640731655    1.46721616468573    2.81287246514413
H          -0.06129419582137    1.77367233250926    3.46689128158227
H           0.13595473803728    1.57899906756725    1.93366089695625
O          -1.95934904886234   -1.96282430627072   -0.74278639596304
H          -2.81197605971889   -2.01262602964729   -1.17920549798400
H          -1.49204867743222   -1.19888555749914   -1.15118693450412
N           1.77843718755285    0.33654462685655   -2.92121610483737
H           2.20482740277942   -0.28823405111339   -2.24708989331738
H           2.27318430369205    0.26048355591839   -3.80125104177881
H           0.82153875986077    0.02230370979501   -3.04696137475747
