    23
        -45.37379021  Gyration_radius:  2.37397616143 Dipole_moment: 5.374
 S          -1.43321545989285    0.95771847049621   -0.12964784939385
O          -2.57999601411188    0.30500256730999   -0.70718334641075
O          -0.32958575320289    1.09206244279337   -1.07260678481362
O          -0.95302089951469    0.25602459204843    1.08349694875422
O          -1.87005296564275    2.38833952770652    0.32686559568624
H          -1.13903749071254    2.70336954007342    0.89709582604159
H          -0.56671243663369   -1.15330158800904    0.53958795501421
O          -1.19246875441544   -1.19883699775999   -2.34626156271828
H          -0.57472756472182   -0.48599629622382   -2.54943618023565
H          -1.93238528846530   -0.72479360224563   -1.90539551813799
O           2.38130695251828   -1.88455551008277    0.10138421119366
H           2.80719108954252   -1.98472874915785    0.95448398054960
H           2.36914019458653   -0.91066610712112   -0.07693469649999
O           2.09735689071350    0.71337459531955   -0.18948200283853
H           1.16707348252386    0.87713819417363   -0.48053384245569
H           2.63707508839896    1.31531053278910   -0.70372053517144
O           0.13614681274593    2.45505123516961    2.06026776814475
H          -0.03878649307488    1.51865935418510    1.83777421843339
H          -0.13884053933518    2.57394867448897    2.97191020597104
N          -0.28167696159159   -2.02230070505529   -0.00549910228806
H           0.76922400198652   -2.10079398408743    0.02849900903255
H          -0.60055360225825   -1.84117212887982   -1.00574396538605
H          -0.73345431947162   -2.84885408792380    0.37107966754458
