    23
        -45.37945374  Gyration_radius:  2.28912751733 Dipole_moment: 3.700
 S          -1.06758679087519    0.58809562845152   -0.07255366817373
O          -1.05191119415431   -0.24956894122167   -1.25555323781750
O          -0.79064486605230    1.98658713913102   -0.34040958810278
O          -0.17112821151470    0.06212369693899    0.96681597368494
O          -2.51870312760072    0.46947254177861    0.51860301782197
H          -2.49472322767330    1.08598276730229    1.27776347162232
H           1.56537946766951   -0.08300224420444    0.58049145019800
O           1.54019303042617    1.77068352924148   -1.61280782807774
H           0.64615633510820    1.87273301392520   -1.22625077503132
H           1.87292790442217    2.66011518883120   -1.74767232097390
O           2.32299729467094   -0.24077656162292   -0.01454617014707
H           1.61997635545955   -1.42861180373512   -0.76395286260157
H           2.27944532368757    0.50402893042759   -0.64736235283282
O          -0.62984057319886   -2.54496707497809    1.01849956504451
H          -1.57734312480241   -2.62486592149302    0.89444106923337
H          -0.46135866174768   -1.58542830241472    1.15240465852563
O          -1.49468844222791    2.19832062324635    2.23452860774154
H          -0.81471735956899    1.57976792483169    2.52143559772840
H          -1.17982815210153    2.53872224232981    1.38089897560307
N           0.82601370918828   -2.03556910358449   -1.15636368301259
H           1.10142804036884   -2.61081272857469   -1.94368923755757
H           0.06352941183277   -1.33455491244214   -1.39787056804656
H           0.41442684869255   -2.57847562216223   -0.36685008483389
