    23
        -45.38117567  Gyration_radius:  2.29865373825 Dipole_moment: 2.264
 S          -1.03771178909408   -0.82723215170895    0.68585434437284
O          -1.93342588489086    0.23228881118815    1.10424003303236
O           0.33735441337156   -0.56074977774106    1.10477203995680
O          -1.08872398591893   -1.05915705016584   -0.75939404366148
O          -1.50225694893453   -2.14120911686042    1.38978301285144
H          -0.96121917221212   -2.82953532458270    0.95766095595549
H          -0.59667084968536    0.29203712576389   -1.71251797943665
O           2.09201419624606    0.02561370239789   -0.77753434138713
H           2.47691602499976   -0.77051248126178   -1.14654668225468
H           1.46657058629522   -0.27984521536529   -0.08022012071415
O          -0.11376376638480   -3.45703087042139   -0.46768667098515
H          -0.60671550146425   -4.10955006631046   -0.97005654276764
H          -0.38749015811968   -2.57892411326297   -0.80972703445871
O          -0.09638833017895    1.09643508587689   -1.96434752789158
H          -0.50927974021177    2.02845073124023   -0.76609301516204
H           0.82989556416394    0.85567951436699   -1.76557762362525
O           1.48485967726559    1.81694457141205    1.54267873529478
H           2.20464201068884    1.68829713217441    0.91616369805507
H           1.10334002271199    0.92315914108119    1.66094337546326
N          -0.74511839107199    2.37814736849873    0.21862959754909
H          -1.34909305108044    1.61402142782365    0.64098305333091
H          -1.21590788453431    3.27599091450113    0.21766683715620
H           0.14817295803520    2.38668061135301    0.78032592932934
