    23
        -45.37484922  Gyration_radius:  2.27239104558 Dipole_moment: 5.304
 S           1.05409025444990    0.89175270563348   -0.17276345004689
O           2.05590816947464    0.91493416329556   -1.23762271306032
O           0.96778622037462   -0.45189757263626    0.39974733016116
O          -0.25575502561989    1.32828684018398   -0.65520776135944
O           1.53048196272121    1.87079168868256    0.92282667840348
H           0.93073550365862    1.75302309700037    1.71904822058179
H          -0.87887989058764    0.07345157946714   -1.58551989386261
O          -1.04940664536077   -0.83654725112272   -1.92575598157906
H          -1.41427367263330   -1.30957721065488   -1.16151937471146
H           0.40374842387759   -1.27539560277978   -2.12998079788947
O          -0.16470629287707    1.62959509562862    2.86112276354468
H          -0.35466105117568    2.50700172518629    3.19978925133240
H          -0.97195208077789    1.35240648953462    2.34452679514505
O          -2.09485900011830    0.96429763026568    1.22700947962620
H          -2.11822873233005   -0.00325464683204    1.15164954041874
H          -1.55469320680566    1.24943158244906    0.46176791775000
O          -1.31263850349478   -1.64948377640316    0.71596593929836
H          -0.42866918832743   -1.20052775644467    0.66403736242774
H          -1.25519777303832   -2.26372100479661    1.44889036708747
N           1.48117326035824   -1.40102168293149   -2.10564177746107
H           1.72174270403140   -2.00869146055658   -1.32614050111019
H           1.84367853774925   -0.40048610704143   -1.83196613399011
H           1.86457602645831   -1.73436850516734   -2.98426324070969
