    23
        -45.37639992  Gyration_radius:  2.38023634076 Dipole_moment: 4.375
 S           0.21802556477771   -1.64059160557920   -0.56641143118160
O          -0.81598653583146   -0.63265844684324   -0.85447068535813
O          -0.30013655085967   -2.78685499081748    0.12159991114613
O           1.35614890554561   -1.01039966766879    0.09282771909489
O           0.74765222146170   -2.12581052562504   -1.97564864549863
H           1.16269978335027   -1.34150872322256   -2.34369500614077
H          -1.63585620312980    0.11168459530502    0.49950599321118
O           0.86201518041336    2.84198074024930   -0.93091198664082
H           0.04191426450889    3.30701865765960   -1.10760929212125
H           0.90822303712848    2.10721007586641   -1.57948836590294
O           0.57433768872619    0.68556170051169   -2.54326503085192
H           0.07166743823866    0.76887196782731   -3.35629388663842
H          -0.02447595073964    0.23012265421083   -1.89209375258953
O          -1.72497848396734    0.47670039387351    1.40225648128843
H          -0.26731843998482    1.06789953964330    1.44161468544235
H          -1.64896095256469   -0.31446961370751    1.97546345294427
O          -1.10849707253139   -1.89377677879250    2.48890425351644
H          -1.71693286362630   -2.55292574595921    2.82828948876041
H          -0.75093534109579   -2.27001888999154    1.65536132528683
N           0.77121134411304    1.23361174550820    1.24104403348346
H           1.29500258444056    1.45630515389625    2.07952495819061
H           0.87726679696757    1.96963073540143    0.50778097759576
H           1.10791356467886    0.31241702820120    0.81571481311979
