    23
        -45.35268774  Gyration_radius:  2.44570490139 Dipole_moment: 3.760
 S          -0.59771808676368   -1.42371683263564    1.42762792183384
O           0.56221472271229   -2.13695431138883    0.98047159282405
O          -1.61241642550092   -1.15894754550709    0.45472760193401
O          -0.20499004517478   -0.15754266632456    2.15857423938675
O          -1.26822421837499   -2.28077322064198    2.57002525532887
H          -0.54727399679986   -2.70582313913185    3.02865113736033
H           0.72105049454803    0.28441138124777    1.74250684088050
O           1.27079725304446    0.25118983232570   -2.70043783613668
H           2.16681226742182   -0.05345799697421   -2.85001112897314
H           0.76632827594266   -0.53427983302525   -2.39092489394487
O           0.00998263308234   -1.87476030506815   -1.65028512447273
H           0.48392775081257   -2.12872530721983   -0.84333792496859
H          -0.86596125468136   -1.63087851385307   -1.32845537897441
O           1.80563407932444    0.88424611451569    1.23201384549234
H           2.07158259962598    1.57682915428147    1.84228374088532
H           1.45519195741490    1.37696883053379    0.36922991873697
O           0.86738123568884    2.05848388021458   -0.77058720193546
H           1.05106647607237    1.48751848267237   -1.54983713125640
H          -0.11328025862654    1.99189793207381   -0.62962688926924
N          -1.74704120277718    1.63187625371331   -0.32137287872614
H          -1.76556801720343    0.65571501707671   -0.03108502575083
H          -2.32141957174285    1.71327152552550   -1.15145099667973
H          -2.18807669804354    2.17345125756957    0.41130029641665
