    23
        -45.36440536  Gyration_radius:  2.44968794267 Dipole_moment: 5.996
 S          -0.36160564665712    1.28654589818889    0.57950392602188
O           0.93505119063273    1.71395956507753    0.16613444114613
O          -0.35813475056436    0.25009738468643    1.59701890937426
O          -1.19624434513933    0.78019966995230   -0.60763333699888
O          -1.18500041975094    2.47937493669198    1.07465735752391
H          -2.06170629720794    2.05023701332087    1.38089426556689
H          -0.83632098604759   -0.12875910396463   -0.98982384971459
O           1.75560083498782   -0.66923757295789   -2.97243566480820
H           2.32303383587130   -1.29904518896455   -3.41918396688305
H           2.27508257250620   -0.31969328628926   -2.20670950999006
O          -0.24822900269944   -1.39553078266468   -1.41220201958533
H           0.40063765089768   -1.14209561723590   -2.11658438612198
H           0.29327598247846   -1.68427090564323   -0.65543030940184
O           1.27180225944584   -1.67758682056550    0.86216731352495
H           0.71828319902675   -0.95192156974945    1.23177753344518
H           1.35822914454589   -2.33494958708184    1.55476527847000
O           2.90456240756231    0.02778631384279   -0.68314749373441
H           2.38568672901798    0.80750199567329   -0.42603653381775
H           2.58891636752261   -0.67687173262203   -0.09974748493875
N          -3.12848804565094    0.94816092498532    1.74518731993196
H          -3.60727399987015    0.64241713860092    0.90841045951702
H          -3.79736731730477    1.04013566769589    2.49806056461848
H          -2.42979135363587    0.25354564902986    1.99035719685265
