    23
        -45.37142349  Gyration_radius:  2.33688941597 Dipole_moment: 3.398
 S          -0.41031979662460    0.99629159096652   -0.76809108450676
O           0.89593369481537    1.15057245524172   -0.14514024398036
O          -1.47368059819287    0.98571545331940    0.22998439070963
O          -0.46498252806378   -0.19851297900963   -1.61176737492980
O          -0.61619607950309    2.23719294020756   -1.68670081192689
H          -1.40124450740654    1.99049131994972   -2.21658586207762
H          -0.29385302253201   -1.60069979223164   -0.65810503711727
O          -2.40157080389733    0.84482030816008   -3.03973289823455
H          -1.82155669755958    0.20706090186822   -2.57651192873187
H          -2.25735288857036    0.71371083825712   -3.97969613096394
O          -1.03254570268174   -0.79743657090322    1.92701659125815
H          -1.37139864788638   -0.05708916965044    1.29550051398602
H          -0.10763941891225   -0.33577505554719    2.32547860766800
O           2.39990357171308   -1.02441226513898    0.10146641567064
H           2.91156862357788   -1.17870679988279   -0.69417698680516
H           1.91318767785210   -0.18391387768654   -0.05107870124559
O          -0.03200148140374   -2.19421085944813    0.07864501458594
H          -0.69397741996237   -1.51362654481131    1.25855459034224
H           0.92750487290235   -2.02818386977579    0.17823882543810
N           1.11068949088135    0.35942178129540    2.53034617926154
H           1.91162342067624   -0.26060061651713    2.50403595497726
H           1.18432005716494    0.97362159603772    3.33013628594295
H           1.12358819366659    0.91426922527375    1.66818369064845
