    23
        -45.37412496  Gyration_radius:  2.34066036168 Dipole_moment: 4.888
 S           0.24564169430031    1.29929416383343   -0.05688193279320
O           1.52255569652557    0.67059448302921    0.26597128742988
O          -0.78674639765575    0.92529931793486    0.92163396705050
O          -0.19901066854862    1.00487829700375   -1.40060645810675
O           0.42090677335905    2.84321762585271    0.10081951296408
H           1.24513994173384    3.02022628981767   -0.39366018292947
H          -0.52191337114831   -0.55166346358711   -2.00612604442149
O          -0.60254265006300   -1.40399383738770    2.20508845363524
H          -0.12190881527492   -1.39848944819132    3.03393497870491
H          -0.57470432402674   -0.48278867771958    1.86725362796419
O           0.99572163150266   -1.95025488608547   -0.01668415981428
H           0.48563286176248   -2.04816225787864    0.80243135625966
H           1.35631864139223   -1.04428521291977    0.02803258923792
O           2.82684377415372    2.58302912625424   -0.96353568421095
H           2.56574723508419    1.70997348032047   -0.60606776374332
H           3.59346260827262    2.86611447177109   -0.45988761548539
O          -0.77783716627251   -1.49780270367028   -1.91162817166913
H          -1.77951341128160   -1.27927252709681   -0.89279181723344
H          -0.04167310478713   -1.87579489735016   -1.36869728529302
N          -2.36913371318806   -0.94441468016796   -0.00153051196779
H          -3.34237919056697   -0.76183003875919   -0.21907637321607
H          -1.86740860964550   -0.06368966951517    0.31576881619341
H          -2.27319942564019   -1.62018498551923    0.75623940143476
