    23
        -45.36949642  Gyration_radius:  2.26691625385 Dipole_moment: 3.782
 S           0.58733740193853    1.56214133247880    0.09058857335469
O           1.73205918914147    0.81331544139834   -0.40137187397377
O           0.56877760248123    1.63758357157508    1.54626182754070
O          -0.66985706450062    1.09330878534329   -0.45496979848221
O           0.76686597099280    3.04925351756519   -0.41858806884571
H           1.48699858794261    3.35174975226854    0.12493026169204
H          -0.72537327255550   -0.51809322591376   -1.11348809934678
O           1.29175780648754   -0.18208307133196   -2.87801727802669
H           1.08577086487167    0.57036753997178   -3.43399044935425
H           1.56139017348007    0.18426883250195   -2.01445397360088
O          -0.59524372568678   -1.45519733335656   -1.35363578943614
H           0.56368959543221   -1.81843575965145   -0.14778938705207
H          -0.00962676511416   -1.40141994020333   -2.12570306282956
O           1.23375397045310   -1.63506831744881    0.55652588881769
H           1.67756077570903   -0.82205490760508    0.24521095971865
H           0.46877338043552   -1.17517762751683    1.72942606480398
O          -0.14808558519892   -0.62925000470461    2.38213614987835
H           0.15194127619348    0.32950774002550    2.20480183842895
H          -1.14492218229543   -0.67908522947489    1.91106174171282
N          -2.29735900991745   -0.60784761304622    1.07878793722352
H          -3.19896012084234   -0.43308978183968    1.50178632316874
H          -2.35789243173696   -1.42142473320412    0.47699398537405
H          -2.02935644770331    0.18673103215354    0.49349623927273
