    23
        -45.36676971  Gyration_radius:  2.28145783115 Dipole_moment: 3.844
 S          -1.01688861998516    1.32100500858436    0.16203095999120
O          -2.24231196586494    0.87499466463236    0.78384585648847
O          -0.86586067726734    0.81448456815377   -1.20409824464821
O           0.17300580600477    1.03444896081315    0.94716957950258
O          -1.12667027097226    2.89370065989802    0.04894305331132
H          -2.06497852308166    3.02263858741176    0.14230605010780
H           1.35239787376294   -0.08338372754601    0.41659537801016
O          -0.44179998025099   -1.65162090585848   -0.85128189277250
H          -0.70689449994405   -0.71695115606288   -1.15788105452423
H          -1.04603203647573   -1.80052792327152    0.03801378290844
O           0.25282625678908   -0.94153445170074    2.77639496235394
H           0.22572332438335   -0.08554757809502    2.30944329468987
H           1.11257756991681   -1.32317807209429    2.58340595216323
O          -1.78125265078714   -1.67608358835481    1.23474090291068
H          -2.16164587582126   -0.77240643600754    1.14296632612332
H          -1.11697678404539   -1.59217189201943    1.95840245851610
O           1.78255842674495   -0.82404588353796   -0.06282085529472
H           2.07759038350984   -0.39732662687312   -0.90673526307595
H           0.55163187987691   -1.48532305305600   -0.52237988216860
N           1.85941252818387    0.66428965057882   -2.27772136839619
H           2.39624440039192    1.52234692093412   -2.26019748045462
H           0.88855269631069    0.90604746661690   -2.08115063671371
H           1.89879070864741    0.29614478688296   -3.21999186905118
