    23
        -45.36655679  Gyration_radius:  2.41078113173 Dipole_moment: 2.942
 S           1.03225821486284    0.01014232126465   -0.16234226199665
O           1.37883694558532   -0.75553165244935   -1.32484899209930
O           1.01710291346878   -0.73303288439961    1.07584563028819
O          -0.34906656188569    0.65691660361294   -0.37266678994855
O           1.95711382426851    1.21478945693267   -0.02768635579209
H           1.89730927459738    1.49159793458403    0.96785751889992
H          -1.06455288665711   -0.06218888454300   -0.74070846036982
O          -0.27871695696280   -1.28973812746724   -3.36338030567107
H          -0.15468648602168   -0.63205879881009   -4.04941831006771
H           0.44514877055565   -1.15680403126026   -2.72064584148226
O          -1.86547862388896   -1.09937682872072   -1.23536246977035
H          -1.51181881105124   -1.21110178896524   -2.14703863454816
H          -1.50070916253559   -1.86620773629923   -0.72985553064811
O          -0.29472286993672   -2.82131184484603    0.01921212009264
H           0.19275743770710   -2.18562724918158    0.57374292062585
H           0.33063480532889   -3.11740309758501   -0.64717373374880
O           1.55700028858064    1.56864564210167    2.42220121787387
H           1.43415397546622    0.61272038275913    2.50602190945734
H           0.63915679368041    1.95587265774946    2.40949355339230
N          -0.97244678794394    2.32768789607383    2.00534726431631
H          -0.99269240109219    1.86538392119510    1.10003865457500
H          -1.19462340513951    3.30478180542967    1.86361344088281
H          -1.70195829095351    1.92184431282050    2.57775345573978
