    23
        -45.37884013  Gyration_radius:  2.38648522006 Dipole_moment: 5.863
 S           0.35549680282252    0.56669889078660   -0.69792296157432
O           0.34572392165701    0.46544665348610    0.78094499452026
O          -0.96604740935681    0.91212366373934   -1.17698112478273
O           0.85989013577249   -0.67043642334073   -1.27949586625798
O           1.32506744009418    1.71675224661629   -1.06045238375647
H           2.23213132069645    1.28212629260601   -1.07144965993190
H          -0.48312648172562   -1.62223926613094   -1.35270864082056
O          -1.40308760154354   -1.97415648080154   -1.27559180431651
H          -1.73331015268537   -1.52349580034986    0.22120636704050
H          -1.91974137614238   -1.42031733440046   -1.86767384300910
O          -3.17254981766647    1.13022580870472    0.23664231314796
H          -2.41918695287854    1.13705692496693   -0.40064868237315
H          -3.20097219926252    2.01090038597123    0.61377425731031
O           3.38424547436860    0.19619324619998   -0.94297211782251
H           2.75869459163986   -0.48322992211633   -1.23940320780832
H           3.43772943579243    0.08887936502566    0.02953104495181
O           2.81857713953867    0.14280669410031    1.69199689945687
H           3.02517476780743    0.94314433753359    2.17788768181426
H           1.87774338492832    0.22162809263652    1.42414673416535
N          -1.78916204303688   -0.95369728519778    1.11929844157573
H          -2.53355187504454   -0.22910177943356    0.98455003381213
H          -0.86939888245737   -0.40961183739150    1.14229636918031
H          -1.93033961313400   -1.52769648312896    1.94302512529178
