    23
        -45.37093070  Gyration_radius:  2.33541013574 Dipole_moment: 6.814
 S           0.04993761946257    0.97812538151640    0.69754038985401
O           0.69880527830302   -0.30819259604937    0.98408716414609
O          -0.69880395965825    1.45703551876956    1.85233981957989
O          -0.83646854591957    0.82549157343724   -0.46685423977172
O           1.12816601563069    2.01597833906131    0.37725719412954
H           1.65534061858449    1.76719568360775   -0.46694186913779
H          -2.28839013623186    0.32353682303756    0.17440589385271
O           2.38407741381317    1.27145634523999   -1.70506447640756
H           2.70436718761255    0.39218738383658   -1.44280085670574
H           1.65160834838995    1.06294666304786   -2.32973450675274
O          -1.21402158124303   -1.91098245652981    1.79562009305551
H          -1.00541168056593   -2.12337655439383    2.70730928801790
H          -0.44310619146122   -1.38569684483023    1.46385501411244
O           2.14499639294791   -1.34930589117665   -0.94940169433058
H           2.66713737621165   -2.05921555730960   -0.57404770057129
H           1.59355407929749   -0.99731823838650   -0.21325861038712
O           0.28973945179030    0.03542065835974   -2.77611868610030
H           0.70608307554358   -0.78670369910706   -2.49344817038356
H          -0.24203124480275    0.33428184755432   -2.01402421460571
N          -2.72010671570485    0.14474045957157    1.11746100713049
H          -3.71939301716988    0.30759636785835    1.17101821463413
H          -2.09505731149440    0.81968539297029    1.67543788865015
H          -2.41102246340815   -0.81488661007538    1.41536305761944
