    23
        -45.37108770  Gyration_radius:  2.31955512 Dipole_moment: 6.867
 S          -0.22051558984491   -1.67103547721663    1.33955259883122
O          -1.62407490516005   -1.37930635384849    1.41794914126348
O           0.61351076483520   -0.88007905888219    2.23467521406247
O           0.29186130055560   -1.59416130244337   -0.03469593869494
O          -0.01361534763005   -3.17224320486375    1.80134995172647
H           0.89579383399612   -3.14870292441349    2.07886143840644
H           1.48695507990090   -0.46776534569306   -0.26571493203466
O          -1.37217492274436   -0.44291671890473   -1.71534835913155
H          -1.82182920640588    0.13394415225469   -1.04687445535492
H          -0.84645010307786   -1.06240143469354   -1.15612022457550
O           0.50477639982102    1.58200371845820    1.50540682763191
H           0.52392494766111    0.64683607734792    1.85214709142210
H           0.60396326099503    2.14510884968120    2.27480386974239
O           1.98385661553802    0.36877099036837   -0.44148482900539
H           1.70679146975768    0.95742828293292    0.28186630224748
H           1.22618426804817    0.85196209065094   -1.65958755461164
O          -1.99141695765796    1.03670999034924    0.37248521654167
H          -1.17387800826720    1.43242811813399    0.71417021664518
H          -2.08013367398780    0.19941070283325    0.86988698176208
N           0.51809806145711    1.09287997903043   -2.44888772901407
H           0.23623254065391    2.06563446485031   -2.39311946745325
H          -0.35634853644640    0.42085987413312   -2.22039556203659
H           0.90848871845195    0.88463451959545   -3.36092577841007
