    23
        -45.35368407  Gyration_radius:  2.3577652174 Dipole_moment: 4.724
 S           1.42838702913124   -0.93076238774717    1.14917205831445
O           2.15912108994766   -1.47241805183188    2.23447148054511
O          -0.00793325337682   -0.83557747127459    1.35819085274553
O           1.63913919171085   -1.78448078002960   -0.15165865249698
O           1.97942663416508    0.42979420752700    0.75983597100790
H           1.66244791214502    0.68144258536793   -0.21507968333184
H           0.81452016516079   -2.26851279530575   -0.35383373707791
O          -0.86384527308949   -2.75383967161426   -0.14400976598866
H          -0.80518199858400   -2.03751294956720    0.52745237599763
H          -1.05157769721863   -3.56867419477312    0.32563695947683
O          -1.29082786779084    1.97159796571456   -1.01075003745203
H          -1.56585086208816    2.85261120326363   -1.26720428777583
H          -1.15383147534435    1.98772583248981   -0.02320475203881
O          -0.76827188353031   -0.77635633145821   -2.16151415814484
H          -0.98473826020844   -1.55795271402426   -1.64119044676500
H          -1.33388714287485   -0.06212149782887   -1.84556672453574
O           1.14912066265606    0.98707143006094   -1.52209912204892
H           0.80346855932213    0.16157694504970   -1.91497808475744
H           0.33174912529900    1.51772335842204   -1.38094576721973
N          -0.64995662243099    1.94196351621310    1.57578621821673
H          -1.24332858042663    2.21372664426015    2.34988196175815
H           0.25827479553082    2.36875359725017    1.71647086490320
H          -0.50642424790757    0.93422154998635    1.63513648667796
