    23
        -45.35869124  Gyration_radius:  2.50195505518 Dipole_moment: 3.752
 S           0.73065107671099   -0.89397814938247    0.92631168810086
O           1.60035605892985   -0.07825360649575    0.14399794314843
O          -0.10794098989311   -1.80726328356452    0.18723430895201
O          -0.14657493078295   -0.02725908958453    1.84154766225031
O           1.56475893964051   -1.70314344263785    1.94390714142413
H           0.95954599209620   -2.41360784406222    2.27558299228404
H          -0.50870641452007    0.82465468437026    1.38131266045665
O          -0.29799571481297   -3.49850783628166    2.19655305940788
H          -0.05716656051295   -4.39588572878141    1.95337998216824
H          -0.53943700876600   -3.03578760314474    1.37111067683060
O           0.54148591415919    1.45125417613955   -2.93168729840891
H           1.22455680942949    0.78465989388530   -3.02595333728159
H          -0.23867495780127    0.98119877405992   -2.54432825949297
O           1.18420762792218    2.51594879047694   -0.57412841771644
H           1.61297285957714    1.69575870756354   -0.28166317125889
H           0.96638205561908    2.34213697250326   -1.52044078946045
O          -0.96537122143667    2.08086225028678    0.73262508164662
H          -1.05548344808692    2.76211902638583    1.40272804569065
H          -0.14738960465182    2.33702197189542    0.17589197951798
N          -1.41197096802230    0.13803459311742   -1.59777501056819
H          -0.94742966225705   -0.61680032789917   -1.10075282771323
H          -2.23042301450014   -0.24722209544483   -2.05225111070693
H          -1.73035283797648    0.80405915654187   -0.90320298935646
