    23
        -45.35844852  Gyration_radius:  2.42341330259 Dipole_moment: 2.374
 S          -1.68653119221623   -0.86230735009134   -0.68093042476485
O          -0.79050666781187   -1.80766284524965   -1.35833001385224
O          -1.32489580463647    0.51450828601974   -0.92702805606666
O          -1.81415140335663   -1.18242666591171    0.72956526888987
O          -3.11172275836169   -1.08021419844725   -1.32781733808412
H          -3.30998281474246   -1.97154092151041   -1.05931524423375
H          -0.40554504946020   -1.12450412881368    1.57529885190712
O           1.36147359089120   -2.27182359227859   -0.22725190370141
H           2.01414443398107   -1.60991941154203   -0.63194353147237
H           0.46187104350340   -2.16032420619386   -0.77028546787855
O           0.56056572921437   -1.02740117349956    1.76968209267444
H           1.09334462343308   -1.84639888970167    0.72407647349452
H           0.78412230102071   -0.12807107117194    1.44316231461403
O           0.95932985239206    1.11466353050886    0.21785342009629
H           0.69760985874119    2.00236533549172    0.52842989138746
H           0.17158517680377    0.85177625592245   -0.31394031469389
O           2.86418133145213   -0.31229935197432   -0.98094767842650
H           3.68980114528244   -0.19358778200470   -0.50785272853176
H           2.24459185631030    0.37317095632470   -0.64888127324873
N          -0.84768405188089    3.10850233827725    0.65123530407479
H          -1.35083980728109    3.16241732238187    1.52887375851688
H          -1.33903244131927    2.43766883255355    0.06425465284529
H          -0.92172895199203    4.01340873090419    0.20209194645136
