    23
        -45.36479109  Gyration_radius:  2.3687218056 Dipole_moment: 5.018
 S           0.48181115384874    1.30106329853428    0.27966859043853
O           1.92203310117168    1.42266498310795    0.11058770829848
O           0.10227483003120    0.63856611501948    1.50366361225795
O          -0.10809662403838    0.62015319154776   -0.89762074630033
O          -0.14728031612380    2.73181557433098    0.29548271311631
H           0.19431988420241    3.13858296195306   -0.52923659909402
H           0.32085405957477   -0.73315381964019   -0.95958264581404
O           0.68557098770072   -1.72307633242205   -0.83361257285243
H          -0.11548305819280   -2.26061932657472   -0.42844707338701
H           1.39090346474413   -1.60311439910702   -0.08792314082647
O          -1.34710934480695   -2.83846290888123    0.15236145206741
H          -1.92321520459928   -3.21958661418553   -0.51286135142898
H          -1.80376936835129   -1.99477353882676    0.49244697033511
O           2.23896587423663   -1.02685949828612    1.04861452257495
H           2.42658416787522   -0.12718606780275    0.70394346991012
H           1.61457264155836   -0.86177626396266    1.76720428880028
O           1.17049624250303    2.92480049171871   -1.98083266635284
H           0.68068744794727    2.20599201751926   -2.39307203109419
H           1.82177654068120    2.49058680218220   -1.40482604265860
N          -2.36275840350791   -0.54263153897891    0.85736950460305
H          -1.51570027728138   -0.08895322301314    1.21022900894410
H          -3.08089735511458   -0.44239885512572    1.56391613663758
H          -2.64654043404733   -0.01163302910159    0.04252689182222
