    23
        -45.35335625  Gyration_radius:  2.47596904493 Dipole_moment: 2.791
 S          -1.73310081125121    1.00445039998100    0.38530978752300
O          -1.48711545005218   -0.06587541279997    1.30590359729854
O          -0.98710106515457    0.98095199300399   -0.83224295616568
O          -1.60222216330099    2.34066107363498    1.10746331014481
O          -3.25317175438023    0.98690561343931   -0.00047301624633
H          -3.74206766965237    0.81779579357006    0.80213367702159
H          -0.70881846339511    2.28715977140904    1.66664388921697
O           0.97619696606461   -1.32721080707880    1.25340231067918
H           0.97298257546592   -2.01786526543786    0.55784480096167
H           0.04782744382877   -1.08088201357309    1.37234008910543
O           0.54236057871869    1.96925967773959    2.30243801489840
H           0.42405149293689    1.15991001276342    2.80983201814862
H           1.11316313990096    1.70780816365615    1.51227959011063
O           1.60442187437499    0.99131653149357    0.16894469079617
H           0.83369966674840    1.06925834890930   -0.40919887856614
H           1.56538663437608    0.06705494581808    0.52605530597061
O           0.97203522284513   -2.94228096780033   -0.91619799374880
H           0.76563026050752   -2.22654928572793   -1.56649840328737
H           1.84557145289464   -3.26795356196583   -1.13870980912230
N           0.52055149135258   -0.85295157652201   -2.59586879077048
H          -0.13406807603285   -0.28000151116655   -2.06945854882961
H           0.10884234161028   -1.02559507373377   -3.50468480303797
H           1.35494432156845   -0.29536684962694   -2.73725785210051
