    23
        -45.37184443  Gyration_radius:  2.26821916772 Dipole_moment: 3.117
 S          -0.07392428280040    0.76554643868120    1.60311231651129
O          -0.06801518447832   -0.69501485393144    1.62862667437022
O          -1.06132706507045    1.27070750845140    0.66732953447566
O           1.25234893706539    1.31509610517702    1.40908081878893
O          -0.52870318573599    1.24572113625282    3.04285153878210
H           0.29980854935925    1.45998563492289    3.45956057504371
H           1.41727000880792    1.92840325161737   -0.90739513606368
O           1.29445558618191   -1.01004484122841   -1.67914501830070
H           0.13052101878385   -1.59040248742827   -1.09287966689101
H           1.94470279271199   -1.05024074338622   -0.93572318942423
O           2.56429785632640   -0.87056437380957    0.64261598470124
H           2.21907395908029   -0.00020901827450    0.92779458187079
H           2.10715236672719   -1.50485788034823    1.20161084369658
O          -0.73656974137940   -1.85424740764603   -0.51896740103247
H          -1.52324504181527   -1.22659594940600   -0.89037706121020
H          -0.52344912967749   -1.47683403502245    0.40411284255698
O           0.64902592190327    1.55499052047817   -1.34847332621656
H          -0.04257326296406    1.54478255725775   -0.65864485462211
H           1.07453019445140   -0.05225643274367   -1.75801293892027
N          -2.46539016840628   -0.16407675068754   -1.27043931251406
H          -2.28152048595492    0.23891446996071   -2.18045113336738
H          -2.19228088053540    0.51921832861030   -0.55910214984932
H          -3.45618878257668   -0.34802116752383   -1.18708453238634
