    23
        -45.37711270  Gyration_radius:  2.38515124765 Dipole_moment: 2.314
 S          -0.96133918538925    1.68320355855938    0.82552794494487
O           0.25794872888844    1.44819787007219    0.06519391192079
O          -0.99378950557681    0.93672837253376    2.06538439439973
O          -2.16015550906095    1.48239379498800    0.02124918825937
O          -0.93418082851869    3.22314897933079    1.20642472387897
H          -1.78066172957257    3.35473022123722    1.62247776788133
H          -1.95223430897574    0.10867824202922   -0.70127459199413
O           2.57547899516875   -1.43567887737956   -1.27691753196697
H           2.47191797776650   -1.04524330157963   -0.38977453516900
H           2.54599570862003   -2.38657669983061   -1.16336527067681
O           0.55182171987663    0.08106079301076   -2.28021997364033
H           1.34396668449185   -0.46224597916877   -2.09847145554981
H           0.57934611773837    0.79912213971404   -1.62394747880378
O           1.84256908447948   -0.34686170822275    1.11274070788266
H           2.26397757011896    0.02261581582346    1.88991206065957
H           1.27718202759513    0.37741483270108    0.74294879712160
O          -0.61044361435931   -1.56498330706429    1.31200865169122
H          -0.89369735022791   -0.73442239416238    1.75397290149423
H           0.35605741952046   -1.47185955451992    1.28072195038776
N          -1.56469828306241   -0.82131520728923   -1.03368016866960
H          -2.26935253571807   -1.37212177068047   -1.51111537532976
H          -1.20863989132397   -1.29696976648558   -0.15395803034885
H          -0.73706926247819   -0.57901604361835   -1.66583857837313
