    23
        -45.36638047  Gyration_radius:  2.27737238224 Dipole_moment: 3.983
 S          -0.34606736895799    1.07477697904654    0.99077923472657
O           0.22156785925653    2.33275721003252    0.56527100051811
O           0.66282075870062    0.15906438974313    1.52903189265637
O          -1.15765144371527    0.42614873348158   -0.02224794496474
O          -1.32018613114596    1.40495617959800    2.19545630770072
H          -0.85526142182273    2.10737873944892    2.63880063355446
H          -0.84510900738322   -1.14267401642143   -0.89298478613258
O          -0.98350914525322    1.50735989860702   -2.46203351185405
H          -1.39756625859061    2.37176992353234   -2.47100222738811
H          -1.18926244862412    1.11310729127474   -1.59115255101630
O          -0.28667541181576   -1.93257285572509   -1.01215563639421
H          -0.36905819685470   -2.40059959015528   -0.13798376573247
H           0.99424658746907   -1.30852557584024   -0.87563612901382
O           1.82261690217167   -0.70139323871046   -0.54820314453917
H           1.51294728682351   -0.40512210227467    0.37469872014379
H           1.80138970867614    0.20271759960273   -1.10133025368707
O           1.53319833699834    1.54799207985659   -1.59455751876625
H           0.74420429348538    1.51393875199735   -2.17999021567019
H           1.20819161872850    2.01152492255801   -0.79243830037504
N          -0.43456385431065   -2.52306340133295    1.57722092146468
H          -0.08854962597889   -1.58589295018515    1.78228123892166
H           0.14535742657148   -3.18459031654805    2.07778731469130
H          -1.37308045442962   -2.58905866155200    1.95038873114256
