    23
        -45.34987012  Gyration_radius:  2.33833034356 Dipole_moment: 5.128
 S          -1.31279855162678   -0.38530248407317   -1.30952977814522
O          -2.12956368019948   -0.57084276758643   -0.15552684933487
O          -0.25776986224917   -1.33796560505023   -1.52121858095252
O          -0.75038769178708    1.02257937194567   -1.35461297742811
O          -2.24625421463565   -0.43101210635644   -2.57369506551518
H          -1.68411271966061   -0.38415657618261   -3.34434352849829
H          -0.76954764366304    1.41978337326445   -0.35559328575589
O           1.77200913424099    2.69829702327728   -0.47070190185087
H           1.82347522806948    1.73773260155424   -0.55552602892025
H           1.00641383863080    2.88094941651184    0.07725890731073
O           1.97999466985264   -0.18005075985799   -0.58261348847347
H           2.72543774124725   -0.38483190101597   -1.14969284543494
H           1.20507672965737   -0.64458096225037   -0.94997091012360
O          -0.86119961751507    1.71004109314056    1.00945351014194
H          -1.67639278185656    1.25974729387318    1.25344278126053
H          -0.10807602876364    1.18175556091281    1.46058453151506
O           0.96542755716712    0.19873600528494    1.96217496582523
H           1.61108577839016    0.17132497179759    1.24173217120197
H           0.53126621999483   -0.69045681631109    1.94384376848110
N          -0.30367094364532   -2.12466563121572    1.47240217235347
H          -1.11536216442306   -1.72418770387963    1.00971447407008
H          -0.62877017443545   -2.81540770137231    2.13747901954285
H           0.22371918686660   -2.60748569601773    0.75493891876482
