    23
        -45.35533124  Gyration_radius:  2.29745398285 Dipole_moment: 3.486
 S          -0.46289069205737    0.86191480881980    0.41951393929395
O           0.03311582396518    1.84766871703159    1.31335494294224
O           0.13293250771972   -0.45180317894056    0.55254337012002
O          -0.21837851718166    1.33833660358809   -1.05209283479656
O          -1.97850893416675    0.72444515374996    0.45074941208929
H          -2.18219725973949   -0.13300802727169   -0.08029000560704
H           0.73550942345121    1.65620606887094   -1.08183025337843
O          -0.13290785087389   -1.03903133475575   -2.53336555365612
H          -0.23898437814533   -0.08134117515391   -2.54895727079463
H           0.75336561690001   -1.19455620416714   -2.17629751170065
O           2.26985670901782    1.77691688245246   -0.68963073205505
H           2.54474419721198    0.84597143666258   -0.79434965096095
H           2.19929608222491    1.96572929543590    0.25145945643119
O           2.24199702117251   -0.95377551534437   -0.89744466655520
H           2.79386559155486   -1.65711063536702   -0.55056521057331
H           1.47613539351698   -0.86521594779553   -0.28607341428835
O          -2.13833183977539   -1.46461007014374   -0.80804923421081
H          -1.76784138769607   -2.07190262560553   -0.16129343582589
H          -1.46255858281389   -1.39002030740803   -1.52633731535943
N          -1.17518855274229   -0.09187157481676    3.28479789716928
H          -0.62096691648346   -0.54229192219830    2.56728399961334
H          -0.72635739799484    0.79665671670453    3.47361350403606
H          -2.07570604709103    0.12269281564597    2.87326055807816
