    23
        -45.35533139  Gyration_radius:  2.29736425805 Dipole_moment: 3.480
 S          -0.92857122874972    0.44174108483486   -0.27104734982517
O          -1.23429524493216    1.72599641482872   -0.79431588361687
O           0.25173502134446    0.37843111033771    0.56633564077686
O          -0.71160272103418   -0.55479773388986   -1.45954958275714
O          -2.09371553829208   -0.20522462574276    0.46440332054742
H          -1.68902681679022   -1.01865783580792    0.94748735810419
H          -0.10445868616845   -0.08095081396220   -2.10659731357420
O           1.00293436181674    0.93041182751584   -2.62953153406257
H           0.66204494899168    1.76162234158863   -2.28425689941852
H           1.75774117852403    0.65590040382984   -2.07465108651636
O          -0.78597718635753   -2.04964609537537    1.60003485901549
H          -0.27489211957308   -1.54248293505358    2.23697352584339
H          -0.13943107752878   -2.35498281357847    0.91675516713548
O           0.94360147082072   -2.54423884838578   -0.38592537700410
H           1.68284255241923   -1.92243851616102   -0.44941290860182
H           0.33506185809212   -2.29226392093264   -1.08950817391307
O           2.51935316099645   -0.13809113720460   -0.61430386855421
H           1.73141506402494    0.09210618596852   -0.07178174091706
H           3.28897835924654    0.15955142073150   -0.12576283289299
N          -1.52950471954171    2.27615611148747    2.15779090117085
H          -2.30248879697104    1.62128811765065    2.15490075317128
H          -0.69496416653779    1.75082062334704    1.92903697901922
H          -1.68677966377547    2.90974962360275    1.38292601658459
