    23
        -45.36324321  Gyration_radius:  2.34733950389 Dipole_moment: 3.228
 S           0.88871249558645    0.94219196933349   -1.01017055358187
O           1.46652464994791   -0.23961782653559   -0.41672838941629
O           1.63429010248466    2.14192283744837   -0.78515168750701
O          -0.55748196457027    1.11113812243586   -0.45421304961262
O           0.63998337384215    0.73741685884086   -2.49329238521571
H           0.00960086861983   -0.07791070329345   -2.62723529206792
H          -0.50046060089828    1.21686131217704    0.53929429383541
O           2.37467511245772    1.31143067629171    1.66211968462461
H           2.34752034991681    1.85699020273146    0.85626270062892
H           2.49790965598543    0.41496912198197    1.32830394172598
O          -0.81323506425576   -1.29868438510801   -2.74576456624155
H          -0.67420121296131   -1.77157638422688   -1.85988335636628
H          -0.42897386470774   -1.86768473960839   -3.41668842000185
O          -0.20530034719040    1.41556024816662    2.09348130971055
H          -0.39999786584984    2.31673964491263    2.36122345540200
H           0.78879996251035    1.34175639257665    2.08669587470667
O          -0.23953519101669   -2.31626165399068   -0.45920339341958
H           0.51866847265740   -1.71690929675800   -0.34118620825078
H          -0.90694676781030   -2.00863994647765    0.19726870250875
N          -1.96186531040272   -1.06687562041911    1.24387800384921
H          -2.69271481147118   -1.50231883928407    1.79203642648827
H          -2.39520529003799   -0.43375838631172    0.58255969818204
H          -1.39076676281229   -0.50673960488706    1.86639318998607
