    23
        -45.35122888  Gyration_radius:  2.48024073388 Dipole_moment: 1.310
 S          -0.82871710274056    0.21216106587608    2.07242650645146
O          -0.52812966173413    1.54118175334557    2.46582994072112
O           0.22232837276023   -0.55367108714185    1.45803408174414
O          -2.08075395846568    0.18601950248339    1.21167660082992
O          -1.25591673905504   -0.59775074978356    3.36652426094916
H          -1.11281131948360   -1.52204008413073    3.17060515174972
H          -2.06004344421042   -0.61633627580561    0.50818982868591
O           2.01452326478723   -0.96966430605812   -2.21169773981472
H           2.47990492548867   -0.42547885301207   -2.84886242601884
H           2.23552165719709   -0.61057521772719   -1.32729727959384
O           2.49641876632303    0.11926584990281    0.22796239614476
H           1.65297382759110   -0.11589035959176    0.66624697967283
H           3.18640303539999   -0.29105187763548    0.75230670045749
O          -2.02870141109747   -1.61273172547971   -0.48360609716813
H          -1.40184815332866   -1.13802983307101   -1.14988388232029
H          -2.88860803795802   -1.63321310565200   -0.91151522399735
O          -0.59302809706119   -0.23748427465982   -2.05212610509632
H           0.29127177117050   -0.63696851625039   -2.18235572922445
H          -0.42860239361423    0.57537353519076   -1.51432812128329
N           0.04829220201149    1.89016144081713   -0.47823604549384
H          -0.34772463258607    1.82416899036694    0.45294279402585
H          -0.12456813544249    2.82885240031198   -0.81812787455362
H           1.05181526383992    1.78370171749098   -0.37470869700119
