    23
        -45.34945029  Gyration_radius:  2.36716419266 Dipole_moment: 4.042
 S          -1.62721612334560   -0.85535855226729   -0.49301289536346
O          -1.58066612740919    0.47596279803326   -1.01702482541454
O          -1.33030091950676   -1.02216017017627    0.88893590499486
O          -0.77086633819264   -1.79699758603638   -1.35529207869788
O          -3.05873396414311   -1.43192632286601   -0.76669003045236
H          -3.29259260929927   -1.13815480888665   -1.64396473067431
H           0.21913214591121   -1.62731091193944   -1.14630638892472
O           0.96252684166021    1.10458926871325   -2.10396635143847
H           0.02956439849944    0.97723672358213   -1.88941764346582
H           1.42599264325720    0.35800512662813   -1.70942325136014
O           0.26650449614278    0.82732405463488    2.42572445997458
H           0.36322410123689    1.54094290076409    1.74911048874055
H          -0.56334215336187    0.39021375136734    2.20416646102827
O           1.37371790488132   -1.45933169499848    1.80148548228198
H           1.16557638146701   -0.53800559692822    2.11514328321548
H           0.52866469570590   -1.91357933463850    1.87950780603046
O           1.62287384714634   -1.33185124340757   -0.73180610515259
H           1.59527763827004   -1.34217576038248    0.28897901262502
H           2.24157717081310   -2.01793517336064   -0.99292025647273
N           0.17269385050600    2.58028852598389    0.36974249828366
H          -0.69293483121845    2.21584846970066   -0.01617410802943
H           0.88252752388964    2.42365102164750   -0.34009459855470
H           0.06679941708619    3.58072452482458    0.48329783682618
