    23
        -45.37357804  Gyration_radius:  2.28933906205 Dipole_moment: 4.536
 S          -1.44041229912702    0.93497663788202    0.75228105009759
O          -2.74385888853407    0.72945973998293    0.19963001223462
O          -0.96288072619887   -0.14831244698813    1.61533585949996
O          -1.54296543254167    2.20945456551173    1.71860022378289
O          -0.41263690537458    1.29593128372975   -0.21896528119503
H           0.78796030262049    0.83623057741564   -1.51961146344351
H          -2.47946545276121    2.35584827212503    1.81310604090566
O           2.24097105138184   -1.30784986282493   -0.19778086573879
H           1.95640956805750   -0.29112040658691    0.79480615774593
H           1.41378996720145   -1.85105525847523   -0.13521928026635
O           1.34772144194214    0.31596708379908   -2.11751528595644
H           2.12449538543940   -0.78954608881437   -1.02674911498771
H           0.72783422403516   -0.16705988733629   -2.67233408379553
O          -0.23497001617266   -2.21375091233873   -0.03697489437587
H          -0.65767016551558   -1.87003139784312   -0.84394967059546
H          -0.58920024421367   -1.66487210823039    0.68135008776686
O          -1.44989924275068   -0.59971405946953   -1.90898293323538
H          -1.22390502724738    0.16999254605367   -1.36286044367886
H          -2.40442019741450   -0.67421113672358   -1.83461963804630
N           1.53073170880130    0.50762807092789    1.45242282185797
H           2.11161761076120    0.72729618242371    2.25390037204198
H           0.56066315190879    0.16854650569308    1.72429438252743
H           1.34009022586174    1.32619212012843    0.86983592702035
