    23
        -45.35627983  Gyration_radius:  2.34743689904 Dipole_moment: 4.967
 S          -1.54899681806512   -0.95776976653428    1.29861037298193
O          -0.19015862067926   -1.15956365568569    1.75778442038334
O          -2.42792242591180   -2.06076744722120    1.41832684560021
O          -1.47260730310824   -0.47006702470651   -0.18844328788087
O          -2.12247616434285    0.29036054569666    1.97223920741391
H          -1.34223707792997    0.93781714640829    2.00047598617360
H          -0.87772456990187   -1.04162499308841   -0.76185206989649
O           0.00446170936248    1.68599313323975    2.04129756083855
H           0.53107255437081    1.62341801212102    1.20125622631329
H           0.49810235624142    1.17624822785309    2.68874920262451
O           0.25549219320334   -1.61097729068142   -1.72560616095454
H           0.46799198510869   -0.85223812840403   -2.27813487945065
H           0.99273712779441   -1.69988346508829   -1.08654178773726
O           1.46448444234434    1.29376113462399   -0.13285914167934
H           1.80171878518017    0.39194356344553   -0.03694279291541
H           0.89802092387178    1.30943314503613   -0.92620461374051
O           1.95586819643667   -1.43497270579251    0.32401635233696
H           2.56066848931714   -2.05729726305143    0.73054957699600
H           1.17712564128484   -1.36614728016017    0.93166906980195
N          -0.40119165437105    1.41781165457674   -2.22063129973648
H          -1.13836208068221    1.01857315437332   -1.64564000364144
H          -0.57980507618721    1.14051757956282   -3.17917719575235
H          -0.50626261325560    2.42543170348193   -2.18294160801241
