    23
        -45.37796046  Gyration_radius:  2.34648800162 Dipole_moment: 5.000
 S           0.93722208038254    0.90249637545165   -0.51012164672413
O           0.83129305669506    0.56266166282891    0.91181818409085
O           0.39776383625411    2.20609515449784   -0.79972166242921
O           0.27911884343173   -0.15350810467655   -1.31047921556723
O           2.43955907967024    0.88938420277342   -0.88936922970250
H           2.65527236537678   -0.07870696705085   -0.95539660008484
H          -1.18898245060088   -0.20617155111498   -0.93760157612158
O          -2.18303211959532    2.52939018384602   -0.59839846947471
H          -1.19293297902771    2.51141551998549   -0.59268741741562
H          -2.42376180918792    3.10437903836666   -1.32705581201140
O           2.43925996813303   -1.70333348141017   -1.00749639617801
H           2.26227379269466   -1.99068998990987   -0.09059140380027
H           1.56653631129246   -1.50698679012110   -1.38215397171679
O          -1.27306640117920   -0.67076304211636    1.93969692868766
H          -0.53558753442277   -0.05785956823658    1.72404182625239
H          -0.84581812485690   -1.52169279476613    2.07766569578075
O           1.61924525323159   -1.83782000960016    1.58557896431569
H           1.35392653135124   -0.91033393831684    1.37242294512937
H           2.29933823479953   -1.76948248223012    2.25759504851132
N          -2.16241633691017   -0.11829862686803   -0.49082580627332
H          -2.85943453439869   -0.68053769594545   -0.96639207626044
H          -2.38792682879787    0.90904763398652   -0.52522832299672
H          -2.02785022437552   -0.40868471942145    0.51470000401076
