    23
        -45.36206333  Gyration_radius:  2.31790642885 Dipole_moment: 1.200
 S          -0.86129662073531    0.25263105703070   -1.43136379885035
O          -0.60300671404695    1.28247430908320   -0.43512628799503
O          -2.25035296891821    0.14121070809858   -1.79010294395182
O          -0.26475055663203   -1.02257330969000   -1.01974803538835
O          -0.08460276751536    0.67193880214068   -2.75480592314284
H          -0.78566476860688    0.78966427942202   -3.38920026289989
H          -0.71490589859568   -1.46695879052795    0.31602429062584
O          -2.70135934457712    0.40200342448383    0.86912048733505
H          -1.98298344066313    1.00904381406821    0.59616540726391
H          -3.12602472757780    0.19255515299785    0.02358938453277
O           0.67046198111883   -0.53306083004494    2.69971155689607
H           0.31541747448015    0.00305652630520    3.41163329544464
H           1.13659498485807    0.11400990840075    2.06084936183751
O           1.63908417942727    1.12908557121095    1.02614558741491
H           2.18912690930204    0.65412625349266    0.36177603068822
H           0.83456404263950    1.36174983937077    0.52427683118083
O          -1.11154511050882   -1.53732579468630    1.27159501172696
H          -1.85792320406100   -0.82728914292239    1.25165351017494
H          -0.34568497809599   -1.16841244248428    1.92332326959582
N           2.51424673414733   -0.23213702757415   -1.13561254832258
H           2.60880830982317    0.40300191629617   -1.91870818186091
H           1.58713782008954   -0.64633709466708   -1.20653990104163
H           3.19465868464632   -0.97245712979767   -1.25465616126582
