    23
        -45.36288394  Gyration_radius:  2.40835057423 Dipole_moment: 7.421
 S          -0.97891383830994    0.60833783772952    0.19616223984878
O          -0.93759236007128    0.52435547905289   -1.22991034962658
O           0.14738869121571    1.25925919763991    0.81664018022986
O          -1.11057589402003   -0.81758147084071    0.80247219245684
O          -2.27757018933338    1.26459452033199    0.65697581053434
H          -2.12539404024579    1.45183855211497    1.66553122686613
H          -0.38336528999789   -1.41939088848465    0.43697554075259
O           0.10762705953282   -1.62098699454967   -2.63953043226356
H          -0.63803590189421   -1.04553075015907   -2.42132097534561
H           0.81918097209953   -0.97446906407669   -2.86879907145459
O           0.71724128143050   -2.27203002539950   -0.23808209030863
H           0.58314331214414   -3.21401886155018   -0.11540304187140
H           0.52868750901467   -2.08362685923930   -1.22099013098870
O           2.40828690703514    0.03275437898744   -0.12070784315649
H           1.72024791337831    0.58364979608502    0.28608195472419
H           2.10628187028533   -0.87860564300777   -0.03064037898131
O           1.64849775472604    0.53158982525912   -2.68019238977310
H           0.85678831838844    1.02307772347699   -2.43715000597140
H           2.13912977633838    0.40931486881732   -1.84202282139112
N          -1.49745956170283    1.63709243337318    3.05282894553015
H          -1.60993720704119    0.85785941922837    3.68723638229895
H          -1.67729250899271    2.49887283027075    3.55044432159466
H          -0.54636458400652    1.64364367492877    2.69340074632664
