    23
        -45.34847680  Gyration_radius:  2.50058660446 Dipole_moment: 2.955
 S           1.67727181909579    0.77749203131311   -0.63440483645877
O           1.66601549960403   -0.65770350614517   -0.73578080132825
O           0.60357023230029    1.37787846906713    0.07470905853118
O           1.85434562018828    1.38487907122979   -2.02832846343840
O           3.02516921397232    1.18772835986499    0.05166435044760
H           3.70609332533160    0.63137984473314   -0.32073431164612
H           0.94792527571712    1.33397967389757   -2.53417414268553
O           0.33911927362275   -1.73927666778411    1.50295479766853
H          -0.50119413632560   -1.41212945291693    1.14963773478167
H           0.98949677782855   -1.53481872531851    0.82256070805631
O          -0.85670167341175   -1.03713917230905   -1.77189184753678
H          -1.40470528539818   -0.78794338573616   -1.00480510835638
H           0.03530958112879   -1.17846400976509   -1.41910890731165
O          -1.74424796925424   -0.00562853303538    0.57091260168375
H          -1.94153622575493   -0.02090599738541    1.53129889796457
H          -1.04957113694330    0.66157628828504    0.46727917722998
O          -0.34626204684101    1.06711195781215   -3.17234129191990
H          -0.24431172843935    0.79653439744715   -4.08826828815694
H          -0.67644936303251    0.25853180008100   -2.67044219530518
N          -1.63232168789346   -0.21596020097235    3.31128173079050
H          -1.35976628528843    0.62671509579339    3.80139014691987
H          -0.80287565595057   -0.79159851185215    3.19970038605249
H          -2.28437341424850   -0.72223882630510    3.89689061399588
