    23
        -45.35695604  Gyration_radius:  2.35929844874 Dipole_moment: 1.387
 S           0.02352531329041    1.65365037607291   -0.01057920191899
O           0.34946434758411    3.04061085005251   -0.00545120385946
O           1.16992879326276    0.76721950521302   -0.03325855142808
O          -0.85327186818916    1.30617311713986   -1.26646486430089
O          -0.88421644896095    1.30238556369400    1.14173120038828
H          -1.50498854340326    0.41618155946789    0.97980053430861
H          -0.28707412493087    1.58689175710070   -2.01320286759568
O          -0.49903152653969   -2.49225704244069    1.17430305548161
H          -0.13783558403901   -2.46209292676283    0.25565373819046
H           0.15156633571895   -1.99797149790877    1.71240572576466
O           1.10337797945309   -0.61514023532919    2.29916504640610
H           1.28405147507869   -0.14966404642746    1.46348600128879
H           0.67274511426429    0.02631325837072    2.86736366246436
O          -2.27227644585661   -0.71410311553260    0.88897405482301
H          -2.85951185576895   -0.73814803781235    1.64852409671281
H          -1.60184449332108   -1.49837360170143    1.00287808536112
O           1.31996998714304    2.23017266584720   -2.42247079749378
H           1.23257656566832    3.02003230153896   -1.87282964481928
H           1.89513141700193    1.63907709702499   -1.92428782594296
N           0.35736579261732   -1.75284049514816   -1.26852588724078
H          -0.45787395216400   -1.47170441727487   -1.79962090588368
H           1.00911994969005   -2.19344695364043   -1.90498424643639
H           0.78910177239704   -0.90296568153926   -0.91260919426467
