    23
        -45.35695618  Gyration_radius:  2.35941925725 Dipole_moment: 1.377
 S           1.61639666292335    0.01688667324262   -0.35392756233103
O           1.00290752227638    0.28609008497082    0.93132983216419
O           3.03950454438138    0.08376436110180   -0.35446652225477
O           1.02319348674069    1.05300439114875   -1.37432039228997
O           1.13229178247381   -1.30488638990084   -0.89594698663400
H           0.12406953010236   -1.28276749061441   -1.31919177805892
H           1.38311285727512    1.90489407107566   -1.05531262958698
O          -2.47978948114728   -1.25538038737628    0.33521873153464
H          -2.41590325318415   -0.28027937258897    0.47801220626044
H          -1.82890405888958   -1.63994920828402    0.95601564081479
O          -1.15131185755679   -1.36222726536518   -1.81243347343084
H          -1.26629994493377   -2.23179007853791   -2.20359778795051
H          -1.76216055936052   -1.32753497764343   -0.97400038933577
O          -0.24199953862507   -2.00697198032222    1.67191294344949
H           0.20971600639976   -1.15170381633287    1.56196122575859
H           0.31705749394945   -2.65514499365840    1.23937779455827
O           2.33943475970650    2.65274869738006    0.24454227007829
H           3.12114362467132    2.10402819310458    0.09906949837928
H           1.91449580679560    2.28354173902611    1.02663379246718
N          -1.69214539823694    1.31566987462202    0.46766300658763
H          -2.00890286909207    2.07755526116308    1.05349352549678
H          -1.62450586353755    1.65849427436659   -0.48292449383151
H          -0.75140124313254    1.06195833942753    0.76089154815524
