    23
        -45.35999009  Gyration_radius:  2.43151887854 Dipole_moment: 6.611
 S           0.56496025584385   -0.64600370264492    1.83106205382648
O           0.70715844988358    0.78117036306125    1.59853816361533
O           1.41479195765289   -1.45370349477646    0.99000452925491
O          -0.84348896658356   -1.05629554907790    1.74116228031374
O           0.99619184533576   -0.91500554348447    3.32734538263943
H           0.41093481439053   -0.34637465220481    3.81765216706108
H          -1.21225818720218   -1.16720514369430    0.34542371458197
O           2.18288478626185   -0.61594458182688   -1.53787175849839
H           2.24366282294621   -0.78731263044824   -0.58428182091784
H           1.62157392143230    0.16455693764319   -1.62043811046051
O          -1.26475336533524   -1.13162239372098   -0.70205118854808
H          -0.57849772242533   -1.87001504125727   -1.02327724130798
H          -0.80361663748680   -0.21427100320772   -0.90764486212413
O           0.59094466841442   -2.72614709093960   -1.26404378798059
H           1.22112111433106   -2.10118152524734   -1.69223198298175
H           0.92625001553711   -2.77347389323781   -0.35332078062742
O          -0.00973626537754    1.04006832603883   -0.88289581197848
H          -0.63793833973317    1.80416806807842   -0.90582192876038
H           0.33766304315239    1.02749301763827    0.04628608494449
N          -1.79570808911061    3.05356083026575   -0.62984525147494
H          -1.66060568653673    3.88422749261473   -1.19185573895027
H          -1.65837511404688    3.30356574467530    0.34181781721494
H          -2.75315931133391    2.74574546575101   -0.74371192879620
