    23
        -45.35999018  Gyration_radius:  2.43105797932 Dipole_moment: 6.605
 S           1.18166647523978    1.59435188990603    0.38186863705146
O           1.51506984515424    0.38036384412046    1.10712808198058
O          -0.11247670896991    2.13264219234038    0.72473679820832
O           1.32645146831210    1.39831625482534   -1.06745745469736
O           2.25970008071451    2.67973226940204    0.77839258280625
H           3.07819393669124    2.25688656756975    0.53847554643467
H           0.16505337401371    0.68949777499975   -1.56362152465727
O          -2.19467503985787    0.50677840721243    1.56347702605400
H          -1.79774785852773   -0.35563520918936    1.39095140288280
H          -1.44797336718772    1.12411676243215    1.62432777374092
O          -0.34981587744150   -1.26752942150200    0.36822613339375
H           0.11165314516174   -2.11043738804322    0.13238590535773
H           0.36009057912195   -0.69110932112340    0.75278107945761
O          -0.72019811135676    0.13917429402173   -1.68305577759603
H          -0.65736741479557   -0.54074248797055   -0.88901689359024
H          -1.48724688084306    0.81641338084651   -1.41402873074660
O          -2.36462165938231    1.79362618341525   -0.75551458617561
H          -2.66127458436099    1.30036784186049    0.04429034310310
H          -1.68110239213464    2.38446614069485   -0.39801724138773
N           1.17867152628641   -3.37971606118541   -0.34484899578125
H           1.20929036392829   -3.52525460619539   -1.34603654431675
H           0.99852714561562   -4.27077398748947    0.09984954440580
H           2.09013195461083   -3.05553534097304   -0.04529310591069
