    23
        -45.36078155  Gyration_radius:  2.49038517779 Dipole_moment: 4.797
 S          -0.06937234449859    1.24501877738515   -0.07533129256623
O           1.34381383824881    1.03184682225398    0.08893192948567
O          -0.70116915692194    2.00722845635572    0.95805411463829
O          -0.76475648231746   -0.13053976821426   -0.20998079759819
O          -0.35949697083189    1.89292226175400   -1.43105206397791
H           0.15428430135698    1.39238484174890   -2.14619910820482
H          -0.69679613194472   -0.64269071000493    0.72039993439063
O          -0.52750070075122   -1.21736030995199    2.01187725568071
H          -1.05062468327858   -0.59437330898051    2.57261916920035
H           0.41249261024496   -1.01904478604365    2.23004066282410
O           1.93025560640400   -0.25122388645430    2.31948265327323
H           2.75835181008703   -0.71422060398331    2.18120126070900
H           1.80556843147348    0.32274901836459    1.53209163845660
O           0.74679124876311    0.55482578207886   -3.30674361020678
H           0.41237447549266   -0.36654213742268   -3.11350994215183
H           0.33159611456745    0.83747768655235   -4.12467864697418
O          -1.57798340502496    0.88895496922514    3.22625124169436
H          -1.39782274322623    1.41289177471281    2.42069744455196
H          -1.00281797084396    1.24876798292261    3.90484090511524
N          -0.31830994521506   -1.78280253462732   -2.59439270707641
H          -0.63694505759192   -1.40027896662782   -1.70675852433699
H           0.32761711093778   -2.53482656278973   -2.38971170504309
H          -1.11954996511134   -2.18116481823588   -3.06812981188564
