    23
        -45.37772319  Gyration_radius:  2.31621296569 Dipole_moment: 2.188
 S           0.07022447927263    1.06231797972220    1.65274463016575
O           0.99243183188278    1.25396755478723    0.54446304176058
O          -0.15320024236003   -0.33386079379608    1.96141316070360
O          -1.17891103286578    1.79031013921207    1.46380684116564
O           0.78530779719889    1.70171421415842    2.91584765685661
H           0.20543016082810    1.45156003987599    3.62824495187947
H          -1.86427133370426    1.19061641595332    0.19756143244690
O           0.15441886398357    0.91348990083299   -1.99369939585967
H           0.57838829851427    1.19989780878806   -1.16031412421073
H           0.41626208965874   -0.01474548619021   -2.10088852915208
O           0.83151085895099   -1.77231157909397   -1.59831084424669
H           1.50315705466249   -1.49464204141585   -0.92575419545327
H           1.15404623654630   -2.58759618613540   -1.98440332982676
O          -1.36404419368653   -1.74161420224063    0.07736978108045
H          -0.93619866622730   -1.38262472217360    0.88616066309351
H          -0.62788617347404   -1.90369659689987   -0.54085984966501
O           2.56062878955079   -0.81310927405026    0.15879786831954
H           1.97959757581964   -0.07255638861917    0.44753837350218
H           3.37554027289578   -0.40278220878285   -0.13740889830378
N          -2.10835594964450    0.63931173668638   -0.67662428069732
H          -3.03434871636482    0.86337168492787   -1.02216874018942
H          -1.99602363903728   -0.39406675242888   -0.41332004177295
H          -1.34370436240117    0.84704876688459   -1.38019615159598
