    23
        -45.35144604  Gyration_radius:  2.39411446856 Dipole_moment: 4.459
 S           1.77757376894903    1.52245907745193   -0.20353858980973
O           1.72564003976919    0.79801857545588   -1.43598154080179
O           2.65303213014194    1.07013772237943    0.81972069088551
O           0.36035433118426    1.69233196009249    0.36582110038132
O           2.18426831838042    3.01071255192180   -0.56648821094837
H           1.94619831120617    3.14831399332468   -1.48146209190033
H          -0.34373607080007    1.37139676701814   -0.33848516692105
O           0.13012207243602   -1.46378816274181   -1.54447663287921
H           0.57443668961294   -1.50240275491113   -0.65512378119409
H           0.82813270135319   -1.14814203474818   -2.12545744073681
O           1.25925491378881   -1.32784577602563    0.82546508672868
H           0.51935016886494   -1.08753586024932    1.43249644107674
H           1.91448978387153   -0.62407663766889    0.90814976431347
O          -2.42928118553038   -1.50357327719117   -0.23170465262363
H          -3.02652946227882   -2.24397685134935   -0.34637354416110
H          -1.59332232267505   -1.75751048242961   -0.65056710578163
O          -1.25714553781452    0.78561754899322   -1.30430970281833
H          -2.00711814462896    0.38796261331988   -0.83922396428686
H          -0.70284319463441    0.00303848589864   -1.56410311095202
N          -0.90925594397494   -0.42242007956298    2.18075078559770
H          -1.18245172269813   -0.55665219681533    3.14482977768479
H          -1.67543340902801   -0.71703866099307    1.58467472205009
H          -0.74573622549204    0.56497347881881    2.02538715709161
