    23
        -45.35144601  Gyration_radius:  2.39417625476 Dipole_moment: 4.458
 S          -1.95643561392113    0.18276906136497    1.28774875546697
O          -2.43154853349911   -1.15577947340132    1.26729346756465
O          -2.15700819421105    1.00305034550101    0.13296855369423
O          -0.47394457574439    0.19935763183416    1.69236477558401
O          -2.65368524845270    0.92602844680287    2.50156197283340
H          -2.70634120254253    1.85086544882156    2.26750632251818
H           0.03792089374765    0.91654539726008    1.12838143520120
O           2.44775765740980    0.41084494144005   -1.43415568802010
H           3.08439589431091    0.42311271426338   -2.15009717947437
H           1.57092661753803    0.41611338558100   -1.84628265924080
O           0.71077656379313    1.82946509008693    0.22013483667040
H           1.61025013371214    1.51363270010483    0.05270229525026
H           0.22075454519712    1.58745199164006   -0.60959672783584
O          -0.77376927823575   -1.61575002805940   -0.90842553263025
H           0.06741514010329   -1.82050261806822   -0.43498260457651
H          -1.46973186279207   -1.63239949196671   -0.23997214711304
O          -0.35864372218027    0.75774722867476   -1.95948341022165
H          -1.23015392624790    1.16092889799335   -1.91220510524616
H          -0.52140781791319   -0.17285278216622   -1.64757228499853
N           1.54243943297443   -1.77044818826584    0.49534413710268
H           2.14026206127789   -1.11797136379831   -0.00058486069045
H           2.09504037397171   -2.57424072874113    0.76117753435742
H           1.20473067170823   -1.31796861690465    1.33617413380237
