    23
        -45.36440554  Gyration_radius:  2.44953664074 Dipole_moment: 5.992
 S          -0.32529114623648    1.32798141931276    0.49963809096038
O           1.03327021396542    1.64896375945947    0.20602296728670
O          -0.49671984867653    0.33469525851554    1.54533282851949
O          -1.07316798511657    0.83366153905014   -0.74884216604168
O          -1.10531644264830    2.59308588070874    0.87018556125518
H          -2.03728288550156    2.23757683925487    1.09730108846898
H          -0.74131513263924   -0.11105354451556   -1.06432399402385
O           1.99102920501391   -0.89852128897559   -2.75439320302532
H           2.55305496297014   -1.58217674896288   -3.12172535157091
H           2.45583057806487   -0.55690632935052   -1.95089045947320
O          -0.20429820122760   -1.42896303915905   -1.38483380823131
H           0.52790728429431   -1.24629799690468   -2.02668806439692
H           0.23726139652415   -1.72405846902977   -0.56792265816429
O           1.05680690853796   -1.72549561203637    1.04045558911867
H           0.52253238879667   -0.95030937563707    1.32909341560798
H           1.02573829137189   -2.36080805072265    1.75787889415401
O           2.95436234286560   -0.19645749836226   -0.38244052293447
H           2.46897513859226    0.62575077712849   -0.20454949734199
H           2.53257583212004   -0.85520697782663    0.18733120029300
N          -3.21202995278079    1.22574891906733    1.38309427697649
H          -3.62094159933315    0.92046426012556    0.50985627670330
H          -3.94823728793658    1.39274004234011    2.05612862373406
H          -2.59474405102531    0.49558624649290    1.72429091214831
