    23
        -45.37543829  Gyration_radius:  2.26414896933 Dipole_moment: 5.719
 S          -0.07670124592823   -1.07384017441324   -0.99892030991510
O          -0.93298933617539   -0.09361728150095   -0.30546347698930
O          -0.64105240243431   -2.39620530486518   -0.97449026303855
O           1.28131450758806   -1.08846752021601   -0.18744788352174
O           0.33586945268239   -0.57459093250315   -2.30035529088975
H           0.94982232811892    0.72292038953658   -1.89362260199742
H           1.08544458303048   -1.28141882642600    0.76311963988868
O          -1.37651619649202    2.35119616070491   -1.26522639147172
H          -1.67028441042225    2.83885072916628   -0.49292483577301
H          -1.40187447678604    1.40288305510077   -1.00855311761935
O           0.71952945068354    1.34907983478287    1.16676110485093
H          -0.01059281202682    0.83361793535208    0.75904789276171
H           1.07776196835575    0.76944578767972    1.84418809391426
O           0.60378381335135   -1.46652283018476    2.31515526091157
H          -0.33658813701749   -1.72179857339984    2.10201781923405
H           1.00160790954593   -2.24425147248765    2.71102086417849
O          -1.74578754809279   -2.16378221152565    1.39967186549381
H          -1.41638827643953   -2.43507527964760    0.51270093207072
H          -2.22718278304181   -1.34954996715100    1.22826700682140
N           1.18546530475701    1.69141551846696   -1.46286584930354
H           1.96452037427664    2.14339933642341   -1.92864035292817
H           1.34476963444210    1.55952397945593   -0.43876491632080
H           0.28606831805083    2.22678763763615   -1.54467520034591
