    23
        -45.38167842  Gyration_radius:  2.27400982515 Dipole_moment: 3.823
 S           0.43837070378130   -0.20271194900516   -1.44533679570346
O          -0.87032625856223    0.21867931616202   -1.86606416342028
O           0.37272883585758   -1.20763795038019   -0.37301374555162
O           1.27858246169857    0.91797483871674   -0.99455028000425
O           1.15096007671606   -0.87047771557325   -2.65961531019101
H           2.03533598505992   -1.08516757522741   -2.30039125380695
H           0.55141391699884    1.62799829633642    0.20437014414017
O          -2.09535855667151   -1.33939094684805    0.65150984973342
H          -1.22639446722236   -1.35360085182692    0.19521243422926
H          -2.67778949454905   -1.87914963152837    0.11498330678286
O           3.13521858832894   -1.00761995173943   -0.92122792454619
H           2.65001602499505   -1.56914375403038   -0.30853482943239
H           2.77024062721567   -0.11495052899823   -0.80046371636841
O           0.30708320593333   -0.51977983766841    2.20518970777781
H          -0.53337114860769   -0.91765019476457    2.45218474042549
H           0.48194124210073   -0.86242361013017    1.30233761099419
O          -2.38551884675292    1.28527409911600    0.02951334365126
H          -2.00106913249964    1.06027334138904   -0.84316334306562
H          -2.53757386051061    0.40596135409267    0.42860249262958
N          -0.05346197939957    1.84350992872670    1.04964727044960
H          -1.07077292580874    1.77009964053202    0.70780254674311
H           0.16426993276531    2.74935618662535    1.44943438672802
H           0.11547505910973    1.05057748603158    1.72157354779863
