    23
        -45.35516930  Gyration_radius:  2.38238894506 Dipole_moment: 4.510
 S           0.58386060404017    1.26050050994429    0.10866360546149
O          -0.19633966937929    1.36387984199670   -1.08168168987710
O           1.98848111006597    0.97666690219577   -0.09650675399439
O           0.01770775293488    0.18905272806696    1.04069131217062
O           0.43588846696520    2.54776919446103    0.94099090138521
H           1.03938648479060    2.40637412355717    1.71196283727228
H          -0.17522351241015   -0.74757615097736    0.50800058152421
O          -0.32990867204445   -1.84703461526742   -0.31107702585967
H           0.52132150084095   -1.85406589890816   -0.80396152027441
H          -1.00613319518152   -1.53369274623139   -0.96305420774775
O           1.95989252367517   -1.28110519626647   -1.53483007579630
H           2.06239371607599   -0.40228930202284   -1.12132587688350
H           2.82390377306330   -1.69734531111585   -1.51369507926724
O          -1.79669745846603   -0.53385764261481   -2.08047158431190
H          -1.60827494354203   -0.63733641375602   -3.01530766432523
H          -1.33370295157380    0.27795679082504   -1.79580971260031
O           2.17320417532491    1.46767339331911    2.54217271515706
H           2.51736564447059    1.17314210187820    1.68341459863065
H           1.71023793238108    0.71828567491352    2.92745155437597
N          -3.09410379953574   -0.40283173072349    0.83467028978299
H          -2.78202640010834   -1.34187693170323    1.05172321987138
H          -2.36587352377257    0.23027866308586    1.14283402409350
H          -3.14535956867415   -0.33256799476436   -0.17485444870201
