    23
        -45.36682358  Gyration_radius:  2.38868770335 Dipole_moment: 3.956
 S          -0.47148542382909    0.51112414687274    0.77735019437446
O           0.49464708636654   -0.31187940762756    0.02212870285665
O          -0.31004771403394    0.38440631186555    2.19857258231866
O          -1.88425598687170   -0.03605995107905    0.36463744111921
O          -0.43971576962918    1.89194518208404    0.30403808338030
H          -0.09731194533464    2.16777163142856   -1.05515403347485
H          -1.78782937841605   -1.01014416067635    0.56394588100094
O          -1.07237394303893   -2.41961386689314    0.84790613952379
H          -0.21819502539234   -2.10854757305204    0.51934530681548
H          -0.96630103682173   -2.47121939612895    1.82359121388303
O           0.25375728869078    2.12675481851948   -2.05221552890035
H          -0.21311766568229    1.29221385027012   -2.38702794856494
H           1.27886089950132    1.78820071144016   -1.87206014585517
O          -0.60817502306158   -1.93474742992710    3.43082504480881
H          -1.29171659665721   -1.80666176864475    4.09064495743965
H          -0.39441666436555   -1.03948718504967    3.08784347655457
O          -0.77271054449348   -0.20167040191009   -2.27539723937714
H          -0.26507167892948   -0.41089309621366   -1.45652510974257
H          -1.69715950292181   -0.25922801637585   -2.01845927276396
N           2.44741215683077    1.11261198390006   -1.36038124560266
H           2.99697723117257    0.57050818932977   -2.01425737372555
H           1.95170017549212    0.47158040521048   -0.72918657057583
H           3.06652906138311    1.69303503276698   -0.81016454576476
