    23
        -45.37306186  Gyration_radius:  2.33890376153 Dipole_moment: 4.235
 S           0.10879439374825   -0.64982595196721    1.91409517847540
O          -0.76532390350027   -1.78640321118620    2.09094563247317
O          -0.48815361336736    0.46746307303677    1.20983034922219
O           1.39986822672671   -1.00676781941609    1.32613630693300
O           0.42806726990284   -0.11058610763528    3.37841492298346
H           0.49978832000600   -0.91636610938307    3.88025890860079
H           1.67778564924310   -0.17555543309192    0.10765308952319
O           0.55749276820574    2.64924898897833   -0.03721196255445
H          -0.23148679043643    2.60483517704585   -0.61047539538160
H           0.26037171309970    2.20847607564789    0.77516601504346
O          -0.12099737891370   -0.86455370482860   -2.28265342530960
H           0.00666805940851   -1.56787058387221   -2.92062869357656
H          -0.66565679461771   -1.25810081847834   -1.55011362201885
O          -1.57568817461187    1.38909450019765   -1.14926649113694
H          -1.25423138122739    0.75592659931759   -1.79978043827188
H          -1.39943255066667    0.98978042734588   -0.28085567459517
O          -1.65251512494259   -1.79521861350150   -0.36504420068660
H          -1.30645302201797   -1.89384503970355    0.55144371817743
H          -2.43662842032874   -1.24652053829722   -0.28349165096702
N           1.75156503513539    0.41353439812921   -0.79066640279008
H           2.70922479607123    0.45438373984893   -1.12107289977329
H           1.37164154902358    1.38133407650660   -0.55594199638823
H           1.12529941406419   -0.04246312470240   -1.48674126798262
