    23
        -45.37051354  Gyration_radius:  2.46137844097 Dipole_moment: 4.180
 S          -0.25970772468437    1.72375932907699    1.32650476290582
O          -0.09716326051953    1.95609834692792   -0.10130545302888
O           0.93038787251811    1.24025697771293    1.97783284833245
O          -1.42922305176529    0.88040408579119    1.58697451164028
O          -0.60039698349773    3.13512324383054    1.96643867897315
H          -1.38699733718668    3.36523128516830    1.48334319533331
H          -1.24296687055141   -0.50625704643917    1.02730071528742
O          -2.04286009977522   -1.30725660369838   -1.96582315160632
H          -1.83019595206258   -2.02496059279473   -2.56509196114492
H          -1.36298622471597   -0.61754303562974   -2.11461821798456
O           0.10411647536127    0.32864693025002   -2.08479336138014
H           0.46059246308519    0.87241938789826   -2.78886633521427
H           0.01406993282080    0.94336830004775   -1.30460219899158
O           2.93747776957417    0.03696449156374    0.80627219232791
H           2.22041909741441    0.58367279116158    1.20393542558904
H           3.49385410143321   -0.22928185649809    1.53990212255018
O           1.29093678219671   -1.58069336700188   -0.49922860666920
H           1.04202542835329   -0.98838265358065   -1.22956253867062
H           1.98114467177470   -1.07859578927302   -0.00717098402227
N          -1.10112361936145   -1.46800218467882    0.56993764110434
H          -1.37626038255656   -2.20399565450648    1.21048798287063
H          -0.07877322443432   -1.56797020029388    0.26802974728314
H          -1.66636987351845   -1.49300620505343   -0.30589699546913
