    23
        -45.37664324  Gyration_radius:  2.27418314983 Dipole_moment: 4.500
 S          -0.43306599143125    0.79744524253986    1.16091540500618
O           0.60840651952067    1.45304141917406    1.90263265810101
O          -0.24241780073093   -0.65637228788274    1.07248659656583
O          -0.74538411969106    1.36472334039863   -0.13307819207295
O          -1.76912730592175    0.97305365951900    2.02763362397106
H          -1.45020215418983    1.29133592151570    2.86621242834230
H           0.17474714112327    1.36031644003523   -1.95337891390902
O           0.80165050099802    0.71557071265338   -2.30862934807781
H           0.02129042453973   -0.55604294570487   -1.92673375595883
H           1.53094330455369    0.73274025202853   -1.64367278633916
O           2.27812932610086   -1.51240085806681    1.39112833913309
H           2.59571301158122   -1.23509615874958    2.25243421288953
H           1.32600306803600   -1.29657380556301    1.37217703685753
O           2.30562972564895    0.76463126918514   -0.12864077185794
H           2.53966772148673   -0.10209792454746    0.25002986915704
H           1.79754356424396    1.21393449683254    0.56367716602148
O          -2.86070171462871   -0.00661690344457   -0.90053015171646
H          -3.38131146708346   -0.16275526112214   -0.11093369261364
H          -2.17983767312081    0.65072170396300   -0.63798959276775
N          -0.57900386905276   -1.30853328463437   -1.43248806757681
H          -0.36904149641115   -1.19479525407293   -0.40148687075479
H          -0.39019268286201   -2.24736021235296   -1.76526468303097
H          -1.57943802259678   -1.03886955173115   -1.51650051938729
