    23
        -45.35645865  Gyration_radius:  2.53654178666 Dipole_moment: 3.143
 S          -0.79922995561114   -0.03666013944478   -0.32201407467602
O          -1.89822249322516    0.55035603939732   -1.01629768967697
O           0.34669537302182    0.82960352197719   -0.14489785465993
O          -0.34495403496512   -1.33322937928432   -1.01683032791927
O          -1.26240268862615   -0.51527047631162    1.05795298442793
H          -0.50674879461778   -1.07443190730947    1.53694359554499
H          -0.60142974382852   -1.22700166317466   -2.00128542356130
O          -1.07405962551744   -0.65066604125993   -3.33187514454401
H          -0.37369210146611    0.04960727709879   -3.42560321531846
H          -1.83611277100578   -0.18787650238610   -2.96040023263637
O           2.33982100918722    0.05455396253329    1.42344322997135
H           2.53339489019267    0.81035927127717    1.98186170867248
H           1.69111758225387    0.36754008455690    0.75823798908462
O          -0.94520214795275    0.17139359731894    3.86208095273574
H          -1.67650863323625   -0.05650584478641    4.43908565072540
H          -1.31534086229342    0.29115609510103    2.97872782456071
O           0.53574681517789   -1.62261019677323    2.39626831812085
H           0.27222442330051   -1.17033521478863    3.21596557263696
H           1.34340524271132   -1.15420079228048    2.07357077603004
N           0.73183538630895    1.28614785788804   -2.99425158716162
H           1.70332677360410    1.14119263293027   -3.24004880464026
H           0.66135482591451    1.25769750191054   -1.97888735066245
H           0.47498151112622    2.21918032535460   -3.29174687685940
