    23
        -45.36855397  Gyration_radius:  2.32372607884 Dipole_moment: 6.125
 S           0.14905765938809    1.31150122898711    1.10697647450907
O           0.41570327150107    1.60702075793494   -0.28870649718825
O           0.15082157379576   -0.10696360962754    1.40154903941119
O          -1.06827301801412    1.95319136061551    1.59032067099794
O           1.35333793425764    1.93007133281979    1.93564203434232
H           1.32345837491386    2.86338621846741    1.74327404530201
H          -2.08589211350525    0.82070422836861    1.31627947085248
O          -1.53070660247419    0.15000452293595   -1.39851000569653
H          -0.99933978099523   -0.64568564499384   -1.68352466843941
H          -0.85395159964940    0.81723841831135   -1.16384551193025
O           0.17141672634168   -1.75555365443833   -1.98041775281195
H           0.55448208765448   -2.12872402706216   -1.17663754838093
H           0.85802418761454   -1.12366734114044   -2.28097042402199
O           2.12524132343525    0.10494882320283   -1.85269809973216
H           2.43297504551709   -0.49044912102676   -1.15551956539687
H           1.59127760881480    0.77520688312706   -1.39650436167364
O           1.90573964372413   -1.72873900530120    0.29116938628199
H           1.27044990610252   -1.11585022848233    0.72270021098446
H           2.44544818063359   -2.09213239850941    0.99392911371242
N          -2.50531071044778   -0.08666887125221    0.93881457610841
H          -3.51115272961071   -0.14527703649694    1.06007436232906
H          -2.01208253941127   -0.84374971265823    1.40824352681009
H          -2.18072444958356   -0.06981313378820   -0.13163846637469
