    23
        -45.37878020  Gyration_radius:  2.32989910274 Dipole_moment: 5.072
 S          -1.09323536384058   -0.39117117729166    0.83018317282188
O          -1.06842448501143    0.06096626224299    2.19712190114212
O           0.12023170330832   -1.14613741247568    0.48759251271228
O          -1.24813069583207    0.72362564586942   -0.12620553208782
O          -2.30467612636035   -1.33592034148093    0.63698585249476
H          -2.46427873356367   -1.32719622362325   -0.34590265534303
H          -0.01748233610338    1.61500394518784   -0.01782236230989
O           0.95650118428138    1.60043479463688    2.75871603550553
H           1.60996408973168    1.00081326814520    3.12480428804748
H           0.12733149337132    1.06445720660290    2.67212196326552
O           2.26576929947770   -0.10727660789596   -0.66661507283966
H           1.60135943654996   -0.58078276470120   -0.11767210217481
H           2.13413679988140   -0.45421256119233   -1.55382148904275
O          -2.31903675592412   -0.94433495543131   -1.92303427996025
H          -1.48631571816128   -1.37278822162537   -2.20264725317916
H          -2.06115070361125   -0.05939569727733   -1.62121423965414
O           0.17610029921695   -2.01985472398400   -1.98052466409641
H           0.15829587826132   -1.75049617393146   -1.03054297485921
H           0.21573479682845   -2.97754323618594   -1.98323576682443
N           0.95250570461225    2.03980286515563    0.15419709829889
H           1.07703809334295    2.01841363643936    1.20455625400337
H           1.03230944644710    2.97844141772755   -0.22075638227751
H           1.63545268292349    1.36515104528885   -0.27628429358972
