    23
        -45.36596490  Gyration_radius:  2.40362427803 Dipole_moment: 1.822
 S          -0.32233567162729    0.24530441442389    1.52616654267316
O          -0.00523515692746    1.28746603962615    0.57987674397077
O           0.82230187281309   -0.40371089748806    2.10097756067415
O          -1.23937325688067   -0.78337653372934    0.84667802954329
O          -1.22053970332898    0.80730004352989    2.63004511894541
H          -1.95423783303794    1.29850576926250    2.09803029419563
H          -0.73378468543419   -1.38534054960453    0.14943898556299
O           0.23503204471252   -0.46271591690702   -2.88440814321314
H           0.70606851264851   -0.73088896115815   -3.67481244350285
H           0.84483242566075    0.13838837567803   -2.38786388159576
O           0.07013987215504   -2.11741454543673   -0.81909719003641
H           0.01841856449966   -1.57775639108997   -1.64685095046316
H           0.98740615328159   -2.02163217246956   -0.49884860929707
O           2.46208636882527   -1.41328750175537    0.30791467127902
H           1.94203870905948   -1.01885735999910    1.04433296451606
H           3.12325377529502   -1.97501145723111    0.71641765465644
O           1.90322342053589    0.84689560485642   -1.29471094777235
H           1.26412593473538    1.18474821916500   -0.64244114787271
H           2.36663848964830    0.12843389023440   -0.84282337457062
N          -2.74899945584868    1.91146943371824    0.90896585101320
H          -3.25601433788506    2.78383428517364    0.97969327061770
H          -3.34081488172633    1.21622196219324    0.47355591188187
H          -1.92423116177545    2.04142425844325    0.32976307758040
