    23
        -45.38062421  Gyration_radius:  2.25474320908 Dipole_moment: 4.358
 S          -0.68090400451099   -0.31622884774622    1.74029848722362
O          -1.62016107896119    0.77728138453688    1.76527505641217
O           0.70511257720676    0.10929317399753    1.56556964094214
O          -1.04149035430942   -1.35911218448714    0.78681047371754
O          -0.73071972016324   -0.98422715721852    3.17811102744464
H          -1.65089973459153   -0.88792004622701    3.39841690633522
H          -1.49485281640077   -0.90870106307245   -0.81242552927902
O          -1.46247513250133   -0.45323007343050   -1.67979466864524
H          -1.64683538555701    0.49210370393889   -1.45549693988228
H           0.01415332374862   -0.45774827902634   -1.92151044243197
O          -1.47963129063018    1.96398600465486   -0.62474630719056
H          -0.54421738019974    2.20530787796544   -0.61825158668537
H          -1.67030746450539    1.64739589024129    0.28085896600447
O           1.43779974349479   -2.02949044175456    0.21106933213999
H           0.48557328589475   -2.20375165934562    0.33380587035302
H           1.57878781735719   -1.32085941007053    0.86395207818352
O           1.34051004621931    1.79727072333992   -0.29752541721509
H           1.08961037731821    1.20970735477113    0.46289670270153
H           1.98364519801786    2.41748606695198    0.04873239387255
N           1.10803195139573   -0.42972151850435   -1.86091122861589
H           1.36737869267558   -1.15777730997224   -1.12667137681083
H           1.36302285803713    0.49902304068173   -1.48328268120850
H           1.54886850096705   -0.61008724025374   -2.75518076737413
