    23
        -45.34552504  Gyration_radius:  2.37611862648 Dipole_moment: 3.451
 S          -1.06506888879779    1.34600763028870    0.54600693090509
O          -0.55544030503497    1.76092823118434   -0.71787927647174
O          -0.09376680438543    1.01111573971154    1.54671526668074
O          -2.09038096857637    0.22432676204895    0.39098661972084
O          -1.96262348315197    2.49555898017890    1.11622462315332
H          -2.18563730982851    2.22905458539266    2.00481434132134
H          -1.64557142710835   -0.57315081666366   -0.10491737475086
O          -0.12102728044463   -0.15743511953518   -2.84735742970804
H           0.79665842883993    0.10428954886035   -2.58777156023671
H          -0.63188674507550    0.64713366348539   -2.71175838488952
O          -0.96635296469002   -1.59713990395879   -0.89381056989769
H          -1.58564597690621   -2.24287062954838   -1.24296021791726
H          -0.58338046535759   -1.10241468334451   -1.69121895770502
O           2.28772859204563   -0.10217767473832    0.80941294576273
H           1.43983656650916    0.24846818826729    1.13335245958813
H           2.97034242869005    0.28080484600396    1.36321666067157
O           1.98162635811255    0.95771894384795   -1.69335748670146
H           1.31536089799212    1.58058694615672   -1.37662399811094
H           2.24313078727350    0.44550813325022   -0.90621095291135
N          -0.05492982125091   -2.04612170963857    2.14131156580114
H          -0.24668401065319   -2.22128363259221    1.16140526729130
H           0.93091010275403   -2.23926624645860    2.27682253408989
H          -0.17719770095809   -1.04964178217840    2.28359698430659
