    23
        -45.34458989  Gyration_radius:  2.40864990635 Dipole_moment: 3.548
 S          -1.70878634470622   -0.66443505372653   -0.67285425854456
O          -1.58381062967125   -0.09505808250350    0.64088443072045
O          -1.31854646613939   -2.02949744404004   -0.79000106122140
O          -1.01971570171075    0.21466494457218   -1.71294556242934
O          -3.19992768452943   -0.52867364597161   -1.12164161290148
H          -3.40677344616670    0.40088409081130   -1.05475700581759
H           0.00851568487878    0.16208241870747   -1.66638754702600
O           0.32748213414012   -1.27921232575335    2.17134005416223
H          -0.09806583754585   -1.92832446103794    2.73424624175827
H          -0.38563852921336   -0.81113459628586    1.70027262669272
O           1.32414676048501   -2.23903722071041   -0.15467637607275
H           0.43117497530294   -2.48631362889119   -0.44267060483177
H           1.21205867423818   -1.94291176583798    0.77026974042942
O           1.03719770741398    2.77325887287364   -1.04728598826822
H           0.82246802501253    2.65970070256255   -0.10403088311544
H           1.44595375519681    1.94422757835477   -1.30720375167457
O           1.47802479498396   -0.11251843351039   -1.60290292167880
H           1.55166217768391   -0.92976392235875   -1.01819793833353
H           1.81331366909452   -0.36003244787719   -2.46786070417660
N           0.41663430921054    1.95572642662098    1.57017528457394
H           1.08611146945286    1.27608655598951    1.91141348972966
H          -0.42503998273341    1.44440695257244    1.32681014232897
H           0.19156048531720    2.57587448541333    2.33800423569238
