    23
        -45.37017613  Gyration_radius:  2.38378539229 Dipole_moment: 8.456
 S           0.65902681110629    0.96782120799876   -0.95557209933825
O          -0.80036614407170    0.86958360361353   -0.91786592550756
O           1.23426008743449    0.24995785104924   -2.07221332307766
O           1.23858613081021    0.54744300505849    0.32053179738423
O           0.97020652367038    2.49837296279496   -1.12093981559867
H           1.94466554319077    2.51561702387872   -1.16464041568647
H           0.84449367649202   -0.97151283560445    0.61101907395512
O          -2.18309153351410    1.16042210943895    1.22550072003293
H          -3.04630601227836    1.39175338917255    0.87690648937408
H          -1.57825856811323    1.14994889221786    0.43278420783755
O           3.42557910211205    1.47779527306517   -1.10981950895824
H           3.21213046480866    1.11329540462699   -0.24260784055960
H           2.96840773141349    0.89293769598629   -1.73539629928851
O          -0.70730654054357   -1.68180962361270   -1.69578412230649
H          -0.98541327289386   -0.76572660031652   -1.50563233921381
H           0.05303051980021   -1.55371544558823   -2.27584050293619
O           0.39001349064778   -1.85515273867467    0.69404355920844
H          -0.00525723769483   -1.99974129555248   -0.20435689609663
H          -0.67726805223819   -1.53810330903021    1.53254106885566
N          -1.55247017266459   -1.21030904731752    2.19242425841410
H          -1.85977769457211   -0.25617752287125    1.83303281366774
H          -1.23280673869265   -1.12270684890330    3.15154195250447
H          -2.31207812423289   -1.87999315144920    2.13034315733738
