    23
        -45.35041225  Gyration_radius:  2.55541643556 Dipole_moment: 3.177
 S           0.42261632491392    1.95789503640246    1.30637628198722
O           1.19401260802967    2.51817358301173    0.23734514977735
O           1.14044625173523    1.37050919614184    2.39283510982604
O          -0.61639961084470    0.99022995929103    0.75725353295562
O          -0.48795020453818    3.09887255297062    1.89324668523192
H          -0.82989694350352    3.56862264551264    1.13601917955048
H          -0.11611544150716    0.07918847053527    0.46536248958918
O           0.58301820963930   -1.09106061003493    0.19462567240215
H           0.75522236931479   -1.40919545777762    1.10894198600935
H          -0.15720142765086   -1.65304931315914   -0.21666197701705
O           1.09141762465001   -1.28921016840973    2.79267757530192
H           1.95859148538172   -1.52672225038887    3.12656403495339
H           1.06281342109574   -0.31186783253602    2.80050143835611
O          -1.31427035724169    0.02677284960152   -2.78029525372417
H          -0.46624510075506    0.37768373037268   -2.43372957782588
H          -1.25843256853982    0.11516058680833   -3.73278298565691
O           1.12968689968333    0.77616541302905   -1.86556885952168
H           1.20749725266752    1.51989560782091   -1.24571175698917
H           1.31682132046973   -0.01240801505059   -1.34372357858940
N          -1.43362010684362   -2.23919724786290   -0.99447726563695
H          -1.54274378879397   -1.49224603431193   -1.68397749301788
H          -2.26987919496514   -2.25512262415097   -0.42516919879929
H          -1.36938902248140   -3.11909008783791   -1.48965120917294
