    23
        -45.35095386  Gyration_radius:  2.46374785089 Dipole_moment: 3.230
 S          -0.57843112856186    1.92722427939972   -0.74634928889295
O           0.38857847857150    1.37453843300104   -1.63339152710425
O          -0.48931091729643    1.54919743532663    0.63355514261589
O          -1.99604318771634    1.68413451584329   -1.27527148692701
O          -0.47284532603138    3.49154129597673   -0.81305242285270
H          -1.02237913381061    3.84532480726035   -0.11616770916112
H          -1.97428920581570    0.80268717106735   -1.81242992994256
O           1.73449752863996   -0.95629752678454   -0.86097582157583
H           0.85345323267691   -1.26250712932667   -0.59339431008376
H           1.58055158034069   -0.09196028573123   -1.26022806170453
O           0.05547292901048   -2.43830453131116    2.16132808700023
H           0.64750287623035   -1.64992143285386    2.27722607623647
H           0.62951993331064   -3.16453945455388    1.91189970656748
O          -1.61222293755869   -0.52226591480047   -2.41232873428363
H          -1.47342463841249   -1.01502078534935   -1.57520162126039
H          -0.73419747776232   -0.36374863586732   -2.77695187423619
O          -0.90907678963619   -1.12987339252168    0.06151688347555
H          -0.85941611628406   -0.24015965260871    0.43683220835887
H          -0.73214661306966   -1.73327847649413    0.82413186674299
N           1.61596110170717   -0.24802934317523    2.00370969871189
H           2.34201321449813    0.09063312152834    2.62191877052179
H           0.96415972014512    0.51304708449265    1.84069044743186
H           2.04207286682138   -0.46242156251276    1.10293389036030
