    23
        -45.35095378  Gyration_radius:  2.46346059775 Dipole_moment: 3.235
 S           1.86179829460513   -0.16656006943590   -1.05255521246121
O           1.14611005231549   -1.38773581801560   -1.20716543930976
O           1.64219047386211    0.56980140657939    0.15754744020063
O           1.65393123509862    0.73794509857682   -2.27209347433150
O           3.39710555887395   -0.47940117125469   -1.14074933352594
H           3.86545502088855    0.31727628727103   -0.89836018833327
H           0.71737770700913    0.52733388951470   -2.65232362078485
O          -0.68859213500042    0.05438615823533   -2.86662407149717
H          -1.08994753603429    0.46276974811269   -2.06985275813877
H          -0.63039188187027   -0.88973486347042   -2.68137284602171
O          -2.17254737679529    1.43995620091914    1.95458325909486
H          -2.95786673654035    0.91338411246102    2.11327212133649
H          -1.41610011803150    0.92379460615821    2.33782064847506
O          -1.16344622334538   -1.79118169627111    0.32373295501721
H          -1.37778202359009   -0.88066632903943    0.06577496437744
H          -0.34299366895793   -1.98919637367800   -0.14290515427814
O          -1.05175982386146    0.91867747286858   -0.39553621291710
H          -0.13021860179076    0.97983095400185   -0.10945395727825
H          -1.57422201091883    1.26632664441731    0.36818739448305
N          -0.12038486200857   -0.19068566745763    2.57617113978223
H          -0.46437855500852   -1.01578513840595    2.08653541324628
H           0.23861318759184   -0.48582992842391    3.47508142771856
H           0.65805002349609    0.16529446633944    2.03028550514570
