    23
        -45.36440172  Gyration_radius:  2.41212187067 Dipole_moment: 2.101
 S           0.22179384486660   -0.73888705572316   -0.85211645451695
O          -1.06984911726711   -1.21381621701236   -1.32103209002801
O           0.61736412092124   -1.35493677040909    0.40016375474569
O           0.20598367152239    0.73863901434855   -0.71988291509328
O           1.30423859755157   -1.06894342828464   -1.91029190888212
H           0.93646052615487   -0.65778063125288   -2.74625323847065
H          -0.61280341599517    1.13101707619916    0.28288966097839
O          -2.07783245834654   -1.13426825627723    1.10505290260088
H          -1.93198312213578   -1.25561699307028    0.13884576989593
H          -1.34820238526929   -1.62057953407579    1.50525019637103
O          -1.26980445518683    1.28544895448126    1.15536844153366
H          -0.63151189261773    1.39158696365291    1.95454242155468
H          -1.72452113810779    0.36995220986678    1.24391585812054
O           0.45760083681722    1.49186332007277    3.02253138894496
H           0.85712422731078    2.36388532617124    3.02558891727400
H           1.16474573680171    0.86791393103808    2.70368591145781
O           2.25388543124352   -0.13104520415059    2.02436609998426
H           2.62102866961495   -0.83870709141023    2.55739099738586
H           1.70589243838146   -0.57540686405532    1.33342227285152
N          -0.18840397042554    0.11922835315375   -3.67657654913583
H          -0.93743361449270   -0.31323907686527   -3.14231821478326
H          -0.39775779433887    0.04586789060992   -4.66393821031092
H          -0.15601473702368    1.09782409302357   -3.42060501249021
