    23
        -45.33928437  Gyration_radius:  2.61735339623 Dipole_moment: 3.478
 S           0.11439842464190    1.55550833450160   -1.70560943249489
O           0.60522910955878    0.45143662614829   -2.47136160546461
O           1.07332111907405    2.18970510654841   -0.85441710857874
O          -1.13442797298898    1.15534122513769   -0.91386802824722
O          -0.51265946530507    2.61967574908524   -2.66809989840059
H          -1.43781654215784    2.65369365689885   -2.43664276058216
H          -0.91835062441916    0.41916095804400   -0.18498828364181
O           0.88159598959499   -1.85617251690456   -1.18718391252327
H           0.74248487096372   -2.60762611997132   -1.76608598988235
H           0.88380573313068   -1.05733020552832   -1.75288046244694
O          -0.44878794504573   -0.57172474654166    0.74433529724565
H          -0.01818115390099   -1.24009091958916    0.16964994856916
H           0.28392936137412   -0.11824858570189    1.21323795253290
O           1.63826495507248    0.95431770660421    1.42702160501631
H           1.56467939448443    1.47099758752182    0.59888773817596
H           1.86762577578246    1.57306985159942    2.12252338815549
O           2.95149875441541   -1.55233799290788    0.81452164737862
H           2.68090161104861   -0.67176763772442    1.09780066111247
H           2.38323138595741   -1.77741481476765    0.06935730126227
N          -3.47073762283813   -0.72339868738837    1.78343499100131
H          -2.51876701261784   -0.66118018949598    1.44062940019516
H          -3.76368063265669   -1.68810306143770    1.68468638928041
H          -3.44755750316709   -0.51751132412892    2.77505115233614
