    23
        -45.36221844  Gyration_radius:  2.41342794369 Dipole_moment: 2.782
 S          -0.29294225939109    0.95247359648722    0.98831865391130
O           0.41722583192529    1.71079876269629   -0.01844009430396
O           0.46469106426985    0.58412500116529    2.13776618254629
O          -0.87331519097410   -0.29895428489086    0.30637347607534
O          -1.54001937148510    1.74429812609674    1.41682254005186
H          -2.18980815029061    1.70780652700010    0.64041907848930
H          -0.58542885337119   -1.14199167910550    0.90724952763717
O           1.71878365862865   -0.27803942257546   -1.33505177109684
H           1.06084932407071   -0.40042516079891   -2.02311692684920
H           1.42453562063959    0.49650083457438   -0.82912317186802
O          -2.96561050067239    1.39246182145774   -0.67683365151395
H          -2.34157751819506    1.67412339788153   -1.38699798076316
H          -2.95822360432792    0.43101805809882   -0.69114217295271
O          -0.01295051373442   -2.03958480991501    1.81931538460483
H           0.83161868945658   -2.32249471346372    1.33016653012544
H           0.27225058310549   -1.34788094518044    2.43527217016691
O          -0.93789694092606    2.05599838182655   -2.26292594668044
H          -0.83295517727670    2.95988718156195   -2.56588802786433
H          -0.34400141935823    1.95585192863416   -1.48798699458887
N           2.19884819355953   -2.47523039095745    0.48314260711443
H           3.02756391353578   -2.29246983775953    1.03478296405925
H           2.11702555833191   -1.72465597425449   -0.20553811675692
H           2.34133705254846   -3.34361638850043   -0.01658426973823
