    23
        -45.36732260  Gyration_radius:  2.45371541549 Dipole_moment: 5.788
 S          -1.03963685610411    0.92089991838777   -0.06900526709465
O          -1.85485363674927    0.47490396981944   -1.16459241819781
O           0.16224555018721    1.63277930623335   -0.49012198408818
O          -0.51671299626122   -0.35564315186141    0.72312889517136
O          -1.78462946052453    1.65412382123243    0.96118555070098
H          -1.02349587167623    1.49275698561656    2.11555246703899
H           0.30721019853279   -0.63604039015722    0.23448467866995
O           1.85241279748161    1.46287576174154    1.46977037436041
H           1.28808209998439    1.70114434608196    0.68888961031206
H           2.29580320863642    0.65163182354034    1.20101185784839
O           0.92824010503024   -2.33068808067883   -2.56666390074792
H          -0.04228622035492   -2.15060287665155   -2.56251693646632
H           1.02428046334064   -3.25678750415040   -2.33946290252580
O           1.63469724256743   -0.61999182784960   -0.66203646862907
H           1.39258593332486    0.24890457111335   -1.01836399332876
H           1.48711396463600   -1.26353917810515   -1.39592538365316
O          -1.68043890143243   -1.82794165444186   -2.41581320070770
H          -1.76983912332644   -1.00147297853810   -1.88841134223925
H          -2.13718255775008   -1.64861009992814   -3.23979492934599
N          -0.30273506239421    1.26982253789460    2.95341343797021
H           0.65638607421435    1.33190600160396    2.48756367642778
H          -0.47918916323947    0.31813894016627    3.26085965218285
H          -0.39805778807505    1.93142972886078    3.71684853632168
