    23
        -45.36391280  Gyration_radius:  2.32263842104 Dipole_moment: 2.744
 S           1.23019036380538   -0.35623658926793    0.74722494328615
O          -0.16941272695269   -0.20450964515552    1.06170617642740
O           2.01963450150219    0.81194625312005    0.95562526943745
O           1.35907051917807   -0.84278976977841   -0.72388246525836
O           1.81600318252130   -1.54993070810591    1.50239876295811
H           1.31796967919264   -2.35461867653541    1.14185637167238
H           0.72899363390007   -0.32161518328829   -1.32877816462895
O           0.51340145045452   -3.38718795832863    0.28044199804210
H           1.05628443183354   -3.55492403151771   -0.49393982658312
H          -0.30017419291161   -2.93774085951772   -0.04953387599734
O          -1.45974165991705   -1.80116129420408   -0.61901093665812
H          -1.39407090459576   -1.29543625171392   -1.43454701558161
H          -1.20552489021163   -1.17653469815438    0.08579931453111
O          -0.22686394154776    0.55893327741720   -2.12551115762640
H          -0.07370923433315    1.38349362901009   -1.55656003125746
H           0.13151943746697    0.77053090712169   -2.99057374108687
O           0.42568117726195    2.48513381865850   -0.56317462104588
H           1.13175711325186    2.09231388810406   -0.02626251096917
H          -0.32205010442492    2.62741690894112    0.06783262120327
N          -1.50996835348129    2.38449925445052    1.31313854194062
H          -1.35838726445197    2.87157673898214    2.18716688807845
H          -1.20518978280854    1.42168346183267    1.43789101092339
H          -2.50541242476692    2.37515751792725    1.13069244817640
