    23
        -45.36427709  Gyration_radius:  2.28838200982 Dipole_moment: 3.486
 S          -0.48475727190588    0.95936824916624    1.17008983063053
O           0.11225415489329    2.19000668149258    1.58521346579217
O           0.35862216867748   -0.20545999283882    1.30493905931126
O          -0.90634416364754    1.07296678823489   -0.33174707777833
O          -1.81552576923101    0.72949400637527    1.85644040354179
H          -2.03627450697068   -0.28253644085260    1.71300425716945
H          -0.07777784312078    1.20606702612388   -0.88389566405601
O          -2.01112770849871   -1.44071150671819   -1.23507561544282
H          -1.04774266726088   -1.61539610044643   -1.38169195232084
H          -2.10240400467336   -0.48521367612991   -1.29701551365631
O          -2.03324819044093   -1.70681491610200    1.36194352223580
H          -1.10120495244834   -1.89893500475468    1.51348939646160
H          -2.15528900113498   -1.71849798739603    0.36782124724792
O           1.34636398155952    1.45464488623026   -1.53354909384662
H           1.39694372658111    2.34312027076792   -1.89332544171654
H           1.93634096799822    1.44614074150939   -0.73253362737464
O           2.55637903098713    1.45793210527575    0.79870862213415
H           2.44701325767531    0.56752891293268    1.14823667592487
H           1.84661369288373    1.96943040640509    1.22792240126606
N           0.68213328261750   -1.57036448144969   -1.25576615860442
H           1.26282299081250   -2.39527848031111   -1.33596435189819
H           0.75763542575191   -1.21963867138359   -0.30356550305136
H           1.06857337894946   -0.85785282614414   -1.86367889197858
