    23
        -45.35141067  Gyration_radius:  2.51892741395 Dipole_moment: 2.611
 S          -1.25908266280614   -0.56509756069827    1.71154099737281
O          -0.22422111584598   -0.91268027810279    2.62628236506327
O          -1.86420047416360   -1.62021447997696    0.95373253054066
O          -0.79788151225637    0.55152980109692    0.77300243789474
O          -2.40058866005666    0.16579360542531    2.51197717715152
H          -3.14484718626745    0.20210318915939    1.91534618711849
H           0.03052712411308    0.19188991483912    0.20597163934207
O           0.97578899433237    1.98138029237070   -1.82385110324605
H           0.13538306269288    1.66862716617681   -2.23478369593899
H           0.71041874085420    2.64640376935596   -1.18596340496165
O          -1.05973860759703   -1.48678808877419   -1.64074438418058
H          -0.11472892127605   -1.43784209277864   -1.45242744050427
H          -1.48371655883654   -1.64578013414668   -0.78044453696456
O           1.18704203989180   -0.25872487245141   -0.47333026107458
H           1.84612084719118   -0.26753904637114    0.27762151959860
H           1.34161023424441    0.54820753923219   -1.02929476378695
O          -1.32654375557460    0.95113940375603   -2.72260150867996
H          -1.32354715465508    0.06154131047212   -2.29771389113886
H          -1.41090729526375    0.78918672326538   -3.66354164885054
N           2.50727038998483   -0.35025208171509    1.81186551946191
H           2.88546665655989    0.47961980557414    2.25166950706304
H           3.15568890949142   -1.10970834919418    1.97833934713015
H           1.63468691524916   -0.58279551651655    2.28734743158506
