    23
        -45.36787865  Gyration_radius:  2.25967014621 Dipole_moment: 7.929
 S           0.00921379310017   -0.56578154770241    1.61168826977836
O           1.11204709888446    0.23869814877528    1.08265101436536
O           0.37971927637060   -1.91105537056921    1.93623302481208
O          -1.04925459056312   -0.64536426520760    0.40669814815437
O          -0.73696590170957    0.16990075247405    2.62830777959978
H          -1.40482299719321    1.18992605331593    1.85104294750402
H          -0.63634882961351   -1.31012597783197   -0.17988569663196
O          -0.15261224348045   -0.20354725545925   -2.47589116475180
H          -0.91371811953410   -0.45902631632921   -2.99872338456362
H           0.16822076642896   -1.00883705305517   -2.04470730243847
O           0.61591041687336   -2.36814229147189   -0.72370529699712
H           1.50211268309022   -1.95799289878981   -0.85131416111032
H           0.62184288529617   -2.62654266454488    0.21380001582239
O           2.72088042907602   -0.73579815616934   -0.79786754228359
H           2.69157260247644   -0.04591332952271   -1.46442989103915
H           2.30352871848644   -0.35665642809003    0.00380715311463
O           0.03508332940139    1.86425337456683   -0.63698410370903
H           0.59042403196643    1.35158188223069    0.00037397800129
H          -0.10453942008301    1.24840979673112   -1.37921993714700
N          -1.86033486932076    1.89321661168438    1.13387923024153
H          -2.02008854409064    2.79921045212071    1.56298712246508
H          -2.72887369657944    1.48458281009114    0.80308566087970
H          -1.14299677924677    1.95500366272786    0.31817413592433
