    23
        -45.36458724  Gyration_radius:  2.37879097097 Dipole_moment: 2.781
 S          -1.46441322003680   -0.49807252136571   -0.97495579620856
O          -2.85900127987184   -0.35106183944933   -1.22280957798317
O          -0.83638493608532   -1.72963131685334   -1.36581972862861
O          -1.18823572547216   -0.32667483448835    0.55423494793739
O          -0.73736425710498    0.69873054374723   -1.60235066088455
H           0.30229834028754    0.63408291539353   -1.52174670251351
H          -1.70041982139740    0.54248574548336    0.77405824552857
O           2.06164459390230    1.29371715407590    1.23932239047947
H           1.73572714554301    0.43388269853383    1.59951149628170
H           2.94041701578151    1.42243327413610    1.59903316008226
O           1.64970398051057   -2.16435076692198   -0.69733816551331
H           1.99237511741573   -2.91284765717642   -1.18836969985613
H           0.69447427813510   -2.09175190388974   -0.93796651784338
O           1.15742130150292   -1.13923253900263    1.84131735843726
H           0.22843250962320   -0.97985391328762    1.62504780547824
H           1.49964076224707   -1.66170474567416    1.09960978967881
O           1.74489294110242    0.50020247719548   -1.28480691951412
H           1.88976966164625   -0.45464868849370   -1.14269735479217
H           1.89358048962191    0.92624587282110   -0.40716242116091
N          -2.59032019842068    1.79033716268373    0.60267092439610
H          -2.06989383607347    2.58149114508689    0.24724316169838
H          -3.22307825061704    2.10658119580648    1.32554626326790
H          -3.12126662226748    1.37964053160109   -0.16157197835986
