    23
        -45.37026550  Gyration_radius:  2.27657828626 Dipole_moment: 5.658
 S          -1.04754607261329    0.39947972195835    0.73597516051982
O          -0.56622451580072   -0.98391605528458    0.68012614459705
O          -2.42460637374278    0.49346388432712    0.26167626209637
O          -0.17050910559196    1.26503540488892   -0.06595569333741
O          -1.01680156841537    0.87565691830585    2.19524231832314
H          -0.04981089956297    0.95653653818906    2.48853638534765
H          -0.84050592587027    1.28713795643355   -1.59050243832264
O           1.96114595299838    0.00934905430999   -1.16244060171265
H           1.44822535908148   -0.66064114688539   -1.62663771590753
H           1.30474972110686    0.59417690652520   -0.74051195352229
O          -0.45517038416577   -1.57572682786446   -1.84696282929900
H          -0.48360326072018   -1.41524844024388   -0.86485496297849
H          -0.69770131365827   -2.49540880440153   -1.96706213135501
O           1.43645912915098    0.89816491024007    2.92649429801607
H           1.80170817104167    0.17478320666484    2.33970894871805
H           1.49882169931586    0.56926322769075    3.82586741819044
O           2.03325302435970   -1.08096690456948    1.34049404778159
H           1.08501418908861   -1.24825352174195    1.17971750399491
H           2.35452561742381   -0.72627474036873    0.49015499670465
N          -1.62325531485336    0.80555047058389   -2.10705464031201
H          -2.01171296071007    1.32477383648587   -2.88660596606565
H          -2.27026045055854    0.67526461905478   -1.25044202678437
H          -1.26619473730963   -0.14220021426817   -2.35496254468535
