    23
        -45.36571993  Gyration_radius:  2.33710007958 Dipole_moment: 7.550
 S           1.01961268711674   -0.15229521947530    1.18416936022611
O           1.20218803290532    0.00907698552931   -0.27201661356666
O           1.81798826036687   -1.20493453780925    1.73245234360706
O          -0.50994164208294   -0.50900317469364    1.36485279139515
O           1.12921084834089    1.15951904212171    1.82609924087094
H           0.02053087921333    1.81515954194838    1.14130922090882
H          -0.54347581313193   -1.50830950176768    1.37065678609416
O          -1.09643965381871    0.13855179622870   -1.40735279136937
H          -0.19508926835382   -0.00126651226492   -1.00687112070619
H          -0.93233001189658    0.41821784438225   -2.31088159999422
O           1.42622108356867    2.46044239818068   -1.22061895930306
H           2.22641443740570    2.86440834200349   -0.88075837562986
H           1.48344758701739    1.50813340411953   -0.96410744671868
O          -0.11416672924232   -3.03057504753740    1.14372444550286
H           0.80790014456996   -2.77664136337574    1.30509788345917
H          -0.25180202728419   -3.08235800781945    0.17839015141453
O          -1.13734696107155   -2.66207607392513   -1.36456414487876
H          -2.02238280484346   -3.00469871173501   -1.22692829327770
H          -1.21485075524949   -1.69184117618790   -1.37412921682968
N          -0.66199752159823    2.24015274919691    0.38809021654962
H          -1.29913066507011    2.92769395615953    0.77531836111517
H          -1.15969549278851    1.45119362875316   -0.05887390617450
H           0.00513537592038    2.63144961796508   -0.32305835268026
