    23
        -45.37886208  Gyration_radius:  2.27360150645 Dipole_moment: 5.372
 S          -1.81068253627580   -0.29526327617870    0.21915430661409
O          -2.12340652935516    0.78020067295541   -0.71459330831648
O          -1.04788559213184    0.17729239889619    1.36253507328351
O          -1.19883699269291   -1.42920424512583   -0.44589678349714
O          -3.19012683135528   -0.79882913835660    0.80637831449180
H          -3.64950364184177   -1.11613030224459    0.03534224045494
H           0.21558861857632   -1.22770882220083   -1.43199691277737
O           0.99683869999312    1.77620149749307    1.04201116035162
H           0.21962872252250    1.19216691475483    1.22425640333630
H           1.07680610681664    2.35560537922686    1.80112203633525
O           0.45118211660333   -2.02954307530294    1.69768867016584
H          -0.10278010701314   -1.23942397883086    1.81884593083331
H           0.04131571299794   -2.48251283363604    0.95310194630069
O           2.40239788143615   -0.64562167564178    0.43801747424023
H           2.16461260196399    0.24353724765824    0.73232417844376
H           1.86354857537926   -1.25311136791458    0.98863341576810
O           1.03129535602282   -0.83591277338142   -1.80585417606474
H           0.63680627136288    0.59644490300538   -1.79340455324490
H           1.69144177919623   -0.87264620008699   -1.06508357756104
N           0.20301657081469    1.57718641099898   -1.55217965998841
H           0.27425099573397    2.23929926826748   -2.31635235601365
H           0.66192784439939    1.92371374053726   -0.69430238703100
H          -0.80743562313733    1.36425925512613   -1.29974745610465
