    23
        -45.35889003  Gyration_radius:  2.41535095452 Dipole_moment: 3.765
 S           0.46464334985274   -0.07066066797489    1.34250711668452
O           0.98801884560841   -1.11968352260942    0.53425078624714
O          -0.97864658199188    0.03905392615520    1.35562996710647
O           1.06200873500832    1.28695144044777    0.94115402036496
O           0.96267484424975   -0.23112393006393    2.79153273894504
H           0.39545884115220    0.37391379757742    3.33485807901308
H           0.87753625615182    1.49687224253057   -0.04674912669406
O           2.05637896452673   -0.62641581535397   -2.04123793896590
H           1.90118341099993   -0.90564996340439   -1.12915953834839
H           1.73823957528582    0.28083538141063   -2.09082584733594
O          -1.63083027165168    0.28470493497713   -1.30316344367917
H          -1.33841451173013   -0.59655643615842   -1.66973117505281
H          -1.63652433887280    0.16502381435626   -0.34129984520409
O          -0.98292215681667    1.21349381893044    3.72102607606482
H          -1.56256784600293    0.80228684754730    4.36704341345197
H          -1.31069710416577    0.95613223025646    2.83892268949626
O           0.45974510367722    1.72632324858601   -1.47226815363414
H           0.21138048560601    2.64052271431281   -1.62511891939982
H          -0.40309634959705    1.17841878810432   -1.50974139238258
N          -0.51505119873574   -2.02725447825003   -1.99565579615192
H          -0.85731753902918   -2.84087967523004   -2.49071300498952
H          -0.24199992017078   -2.31195137708194   -1.06075471119755
H           0.34079942662989   -1.71435732906954   -2.45050600434593
