    23
        -45.35889011  Gyration_radius:  2.41534675125 Dipole_moment: 3.767
 S          -0.98828666606830   -1.00936694652740   -0.16603842217113
O          -1.52015869617022    0.30023580683499   -0.33875808276293
O          -0.29764338649800   -1.23655994327086    1.08562303906945
O          -0.05098734158927   -1.38263807787651   -1.32498979444270
O          -2.11373247196248   -2.05188441881628   -0.30738026064171
H          -1.73574056439643   -2.89867785259247    0.04347450029696
H           0.72214007302357   -0.71229962314394   -1.40863839812083
O          -0.20821009204174    2.24400085463773   -1.92562278059234
H           0.60580154904861    1.73873991642977   -2.01992209310190
H          -0.84334401786966    1.63855898915188   -1.52061805082342
O          -0.75584458889966   -3.83592049466837    0.99992645578681
H          -1.15725172029259   -4.19445863562567    1.79538158417549
H          -0.31433692908400   -3.00370754384233    1.25343347721191
O           1.84996210303877    0.28018120698826   -1.36349896055292
H           2.69567941453630   -0.13721707916582   -1.54048504847176
H           1.84779143117772    0.52820603349238   -0.37120469083306
O           1.62041627747278    0.73187327605779    1.13057977310464
H           1.06497890528354    1.56041324557351    1.16897838168011
H           1.00816758737824    0.01128436064969    1.34373876014653
N          -0.13433991066014    2.72242487572117    0.96302087852495
H          -0.02707946325103    3.00969945382154   -0.00818391218594
H          -0.29837081717742    3.55024565335038    1.52164563424124
H          -0.96961068499845    2.14686694282588    0.98953801045848
