    23
        -45.36638245  Gyration_radius:  2.37519911914 Dipole_moment: 7.409
 S          -0.46694106535521    1.07228418830587    0.16891210953976
O           0.62690323200328    1.38630241819574   -0.69824722431246
O          -0.08290562630149    0.43680042978290    1.41519789050257
O          -1.47774718758772    0.16518223354007   -0.53943021391722
O          -1.28297703259861    2.33095101464500    0.47013364776605
H          -1.99550879897665    1.99707991972787    1.12809778236214
H          -0.98816251415913   -0.70195675269545   -0.93793498904262
O           1.38848790348249   -0.32408838432859   -2.89296623986829
H           0.99495693086035    0.53353397476781   -2.69894986055265
H           2.19049033942657   -0.34677829403603   -2.32928293018480
O          -0.18245984888611   -1.77276990717575   -1.38791319705825
H           0.41735429761930   -1.96184877130270   -0.64269733054289
H           0.38712308891782   -1.33859208040075   -2.08624167066646
O           1.38290498628865   -1.67994615292219    0.85440420809716
H           0.88678031607328   -0.88330373371941    1.15015835927767
H           1.50175681394699   -2.23550737103375    1.62662554986135
O           3.02334623026469   -0.05085250828568   -0.76352435743083
H           2.71691674550103   -0.75089373324565   -0.17140756731890
H           2.41214234968968    0.68600858746164   -0.62104143801924
N          -2.79142635292334    1.06006393153650    2.09759431846442
H          -1.97854334787162    0.50743632623164    2.35117105186981
H          -3.43029244213185    0.47664099660854    1.57379121973077
H          -3.25219902722844    1.39425366834894    2.93355088143295
