    23
        -45.36441561  Gyration_radius:  2.37192981965 Dipole_moment: 3.377
 S          -0.37303936566971    0.79239733522945    0.47609148749153
O          -0.23562151068413   -0.67225953354531    0.51402434716313
O           0.72602037796246    1.42945691762136    1.16793123880843
O          -1.71721318588516    1.15825948400516    1.15943701667283
O          -0.50820264082973    1.23445149314969   -0.91910669535734
H           0.56750839901272    0.82934436698401   -1.77045956742701
H          -1.53726566412476    1.08731605483293    2.14469310847254
O           2.30933179078337   -0.44781697786872   -0.02360053946629
H           2.37631068492194    0.36696300562057    0.49422423388235
H           1.43223076840205   -0.79954269020437    0.25487272177621
O          -1.86637714689360   -1.18434912804822   -1.49057655478514
H          -1.34937902308971   -1.12611800138559   -0.65777128165336
H          -2.12559138582604   -0.27604106062075   -1.67256455998465
O           0.17846697010790   -1.75520654713387   -3.00704251577680
H           0.55461682428747   -2.55251327338171   -2.62824554455024
H          -0.68710846825923   -1.60175983396156   -2.52973714581627
O           1.37857607106001    0.33544804181145   -2.24637624544166
H           1.92886118288343    0.00623209617521   -1.43474695553374
H           0.94473063709440   -0.51416736913937   -2.66693471274648
N          -0.70696841629481    0.93709083504097    3.54965896728091
H           0.14263258939116    1.18709502068629    3.04803815502797
H          -0.60506715517610   -0.00316086159823    3.90788427403495
H          -0.82745233318935    1.56888063573707    4.33030675792900
