    23
        -45.38031832  Gyration_radius:  2.324363339 Dipole_moment: 6.201
 S           1.13837100828956    0.69731998185781    0.38356701983351
O           0.98971529357788    1.24403549120936   -0.95435048392398
O           1.23638408270931   -0.75325151090235    0.38922866201483
O           0.03715898180763    1.15069707493114    1.24748296091388
O           2.46489420902285    1.23833493110398    1.00297349802636
H           2.34316119730962    2.20743643398700    0.95216328827945
H          -1.25589850908193    0.42435917726826    0.78216800467630
O          -1.02017534715641   -0.08341022169294   -2.08655001171048
H          -0.57859130632768   -0.95178085281384   -2.20594526100783
H          -0.28216291071552    0.52086299959417   -1.85640439804676
O           0.43606207093110   -2.29854758659345   -1.69269871831025
H           0.02629878408448   -2.99073439932417   -1.16782287497392
H           0.94618459714192   -1.76094182913458   -1.06013503682570
O           1.23413953380998    3.51629283248023    0.48424063719662
H           0.52126499381584    3.15572131617277    1.02597519347019
H           1.12762615224715    3.08957303678097   -0.37923697654020
O          -0.65020250608405   -2.39028027369613    1.23652251688827
H           0.12781923625810   -1.84268262253079    0.97624501473607
H          -0.50859353322138   -2.62819044958727    2.15392306759227
N          -1.96081671118336   -0.22666076724526    0.31940437401352
H          -1.74179604949063   -1.17676937136293    0.68301337504262
H          -1.71190491200236   -0.18914860130928   -0.73891186417981
H          -2.91893839573813    0.04776522081431    0.50514802283224
