    23
        -45.36171762  Gyration_radius:  2.3474418784 Dipole_moment: 1.061
 S           0.19935498497528    1.18348389887099   -0.63524592779510
O          -0.84775804685514    0.18470051409135   -0.70237549613210
O           0.87595007008247    1.43998070950239   -1.86131032694649
O           1.20962350667116    0.73251540166725    0.44461984384283
O          -0.38744350239269    2.47555788731976   -0.06668451578952
H          -0.84095854235094    2.26922107295474    0.82393590641771
H           2.03956274142638    0.37895640773165   -0.06112235416110
O          -2.75516402958219   -0.30308111710156    1.22187283088776
H          -2.41782191296367   -0.16687271919697    0.32304574987214
H          -2.22378909523956   -1.03625583157676    1.56622603061256
O          -0.27492348959348   -1.64987326159582    1.26323647188471
H           0.41199853149683   -1.24524512318754    1.79747222779250
H          -0.40907420736522   -1.04138649755906    0.51840106136499
O          -1.60669261393673    1.88798889472312    2.08605709322112
H          -2.27505200661503    2.55026213899194    2.27570633000042
H          -2.09648762519173    1.04889700321025    1.85606944621865
O           2.97453863417900   -0.15635321939688   -1.09550242726427
H           2.78829685170442    0.50668953753602   -1.77203956928458
H           2.42474805861398   -0.94918176885233   -1.35198424392983
N           1.05133193682903   -1.90985018961253   -1.63410704187002
H           1.01642725569572   -2.50744768160486   -2.45060220636362
H           0.31587121937087   -1.21436305277343   -1.72147688477818
H           0.82746129103334   -2.47834302413348   -0.82419199780398
