    23
        -45.36721174  Gyration_radius:  2.28368118472 Dipole_moment: 4.647
 S           0.43575496300048    0.92497175836023   -0.92681541465261
O          -0.35161057642871   -0.29501765021708   -1.17525807933956
O           1.67609042638883    0.92625917554458   -1.64905171544586
O           0.62435561136652    1.07425025502438    0.53704922924279
O          -0.41488582426495    2.12943362097890   -1.37735195466101
H          -1.13181532571049    2.19628143171472   -0.66352875385909
H           0.43733112080783   -0.03362738223705    1.28484236727795
O           3.30417195757583   -0.93420124139530   -0.71211143522779
H           3.92161980240787   -1.14342777147823   -1.41533094612551
H           2.78657872239565   -0.16111014128982   -1.03036467201006
O          -2.15861201265205   -0.90195909701902    0.55461272005197
H          -2.61258904469391   -1.69669653764665    0.26843328993941
H          -1.55933147198028   -0.64013623163507   -0.19986561059770
O           1.09869113742160   -2.28692860540425   -0.19053422866632
H           0.56337055782446   -1.72285586553055   -0.78841569308265
H           2.02308564323911   -1.96585003199009   -0.31948007915493
O           0.16959424366766   -1.00755056245436    1.73707437523832
H           0.63173992037450   -1.67309632649769    1.04519730148353
H          -0.80588940863663   -1.06608975888586    1.52540249616849
N          -2.05531306156761    2.10328699045075    0.63582908802585
H          -1.34309424529795    2.19450959570568    1.35000991237440
H          -2.46675395996489    1.18009050711480    0.71911003917243
H          -2.77248916525920    2.79946386877438    0.79054776385517
