    23
        -45.36026632  Gyration_radius:  2.31973820384 Dipole_moment: 3.809
 S          -1.26415657519063    0.92421606009536    0.44969720194696
O          -1.27915510180340    2.06349272296817    1.34367726405161
O          -0.96586048842186   -0.33473813009085    1.08116246433681
O          -0.37943405952261    1.15032617187228   -0.70538541785906
O          -2.72869765427330    0.81819388616422   -0.15147067217457
H          -3.03799840782833    1.71772623276171   -0.11020790035572
H           0.98252618380198    0.74364936521011   -0.26459657132180
O           1.45837969852677   -1.80631415127462    1.04091670986089
H           0.88487450785342   -1.61227729311738    1.79196478661411
H           0.82118312123181   -2.20603823786091    0.35909392795960
O           1.84699983500369    0.50429466346767    0.24503090493019
H           1.74658942671908    1.04509201083431    1.09816040316926
H           1.73721797197409   -0.55661230985189    0.56179004632161
O          -0.45795366994750   -2.46204605047623   -0.52846064823663
H          -0.34527694085279   -2.04509573286135   -1.41429001807139
H          -0.95857567058852   -1.81335156546044   -0.00524035719103
O           1.13601711074656    1.86924295174411    2.28992947514291
H           1.44630815918209    2.76446175318281    2.44257539247115
H           0.17993773030777    1.94678141580635    2.04311357243459
N          -0.20767233454671   -0.90265729263371   -2.73557506497496
H          -0.32566483542138   -0.05924528985612   -2.17636471079612
H          -0.95583086116684   -0.92956361521549   -3.41635967450479
H           0.66624285431586   -0.81953755544748   -3.23916112377191
