    23
        -45.35866041  Gyration_radius:  2.47787302978 Dipole_moment: 8.263
 S           0.72580037639758    0.65860514111715    1.90403031367275
O           1.29297890490415    1.34358751912021    0.76576068211662
O           0.65802438559880   -0.77502489613900    1.74067870735809
O          -0.58993082543360    1.22123641813287    2.26982759973159
O           1.62602147487260    0.97141082592938    3.17014448537327
H           0.99269848192539    1.41570631349444    3.72316878065439
H          -1.54008155752616    1.00609198294163    1.18391047939882
O           1.94361801604464   -1.63962572333361   -2.29846665082119
H           1.38413569808549   -2.03237467335374   -1.61698352562340
H           1.78633397123438   -0.68940569743588   -2.23491898864237
O          -1.24349803866529   -0.37254519375797   -1.61897540837579
H          -0.46257305229204    0.14995528562146   -1.89006379245708
H          -0.86804458726759   -1.20411590320575   -1.26699961631294
O           0.02439217716874   -2.31017018348427   -0.27036521652546
H           0.32068721019655   -1.73952456234482    0.47839479071626
H           0.01246928069625   -3.20688314453763    0.06618383490668
O           1.02704100843610    1.03774790980785   -1.81073908979594
H           1.17846515939335    1.12440540691392   -0.83933904049381
H           1.50090084389162    1.76246627144174   -2.22028572451302
N          -2.27925665663086    0.86167914422506    0.38886364548072
H          -3.05142000375810    0.31378468183313    0.75615005913878
H          -1.82387151915158    0.33206811516686   -0.46559475733088
H          -2.61489074820859    1.77092496182824    0.08561845239973
