    23
        -45.37203315  Gyration_radius:  2.34507466127 Dipole_moment: 3.515
 S           0.81790357666082   -1.16350823715671   -1.34536630903561
O           1.58494133072376   -1.16339679290848   -0.10939259068495
O           0.82191750292662    0.10256684168319   -2.03881463009649
O          -0.54447988847844   -1.64889798120190   -1.12571186008790
O           1.52301903461031   -2.21645125825152   -2.30163652221869
H           1.58039880706473   -3.00607785415318   -1.77122929083885
H          -1.25565017232716   -0.32133194526827   -0.83589737888365
O           2.37296807472083    1.41645523558640   -0.40448774673743
H           1.92600759337553    1.10042849214930   -1.21798491102192
H           2.57334442218975    0.58833635145051    0.05276110043544
O          -2.41325660748398   -0.79800165712973    1.76672014602755
H          -2.49410347894006   -1.71389500670034    1.49226366774045
H          -1.46660942883258   -0.69085663184937    2.04343589796908
O           0.13319304462172    2.16714041762682    0.67958650491023
H           0.09936012907096    3.12403478875603    0.71441528307929
H           1.02652096557297    1.93660462127742    0.28551809853394
O           0.17388401202449   -0.35523215711523    2.02955304296666
H           0.69813042108864   -0.76544385334431    1.31205991079252
H           0.24879931901763    0.59669092826696    1.88893982622040
N          -1.74982547130516    0.52554089788976   -0.40700488601056
H          -2.22282854271413    0.12754547435318    0.45665398644937
H          -2.40149303396771    0.93798236615592   -1.06512607274817
H          -1.03214160962428    1.21976697987645   -0.09925527677129
