    23
        -45.36111027  Gyration_radius:  2.41136331805 Dipole_moment: 0.949
 S           0.27363385588760   -0.93609710048193   -0.14067221435638
O          -0.37964793911547    0.21932931179537   -0.70686598237712
O           0.18136214904979   -2.12277830725588   -0.93190434592143
O          -0.33382581765063   -1.16724459470609    1.27157859905903
O           1.73244689714257   -0.63872390066288    0.17201002147571
H           1.75286642736171   -0.01340863140949    1.00983941367791
H          -1.33791569463564   -1.09515600248945    1.12127144826603
O           1.53527283215601    0.86180559240293    2.16306679347185
H           0.91366582102319    0.38125158228598    2.71731069808717
H           1.01778109036619    1.60715639182399    1.72788642916985
O          -2.71579901065998   -0.88588495200157    0.46847168736728
H          -2.79820766107054   -1.66106848166372   -0.13559414829990
H          -2.52503090833815   -0.13397457636713   -0.10317282993599
O          -2.36197540094237   -2.89674202274303   -1.22440147476882
H          -1.41005413002761   -2.68196247075272   -1.28201527228238
H          -2.41541681166239   -3.82740127118884   -0.99839385727694
O           0.14177908951431    2.47973790507443    0.70479307249100
H           0.82214082418268    2.81254770016416    0.09086378879666
H          -0.27396454802539    1.75929633748881    0.19957433382259
N           1.94367381816660    2.16971754737593   -1.34897059581184
H           2.72976802522711    1.65713604895106   -0.96641585350371
H           2.25999554818464    2.63244328864320   -2.19252555971737
H           1.24745152366636    1.48002059563101   -1.61573414135533
