    23
        -45.35596910  Gyration_radius:  2.33137518389 Dipole_moment: 5.913
 S          -0.04339439384244   -0.35981550555913    1.91049879800093
O          -1.38675800308008   -0.26106418283506    1.40392253160758
O           0.86048562214055    0.67029843148943    1.52549233800960
O           0.51607406371486   -1.74696327391305    1.62492517334726
O          -0.12925334020165   -0.37397534367541    3.47457719073473
H          -0.86059517155932   -0.94421338675583    3.69987410765270
H           0.64943849709210   -1.90240583062534    0.57903180058791
O          -0.71368623866772    1.41296797653192   -2.08859602245369
H          -0.97499950961656    1.95037860961558   -1.31977830298955
H           0.25119383135824    1.26761489918129   -1.97723480867139
O          -1.12072355637246    2.33390630581145    0.48263098373802
H          -0.21925060163413    2.22494060682695    0.80549830847665
H          -1.58410139106313    1.54786164553588    0.79668379467912
O           0.69974439068241   -2.09026268563837   -0.82041509277331
H           0.58553343093858   -3.02307281284408   -1.01824259472429
H          -0.18184024864992   -1.62341600122864   -1.11047735056486
O          -1.48975179788825   -0.93228599999134   -1.27637797039896
H          -1.72825662050414   -0.70751989093406   -0.36508737679768
H          -1.27817708462738   -0.05476192783160   -1.71598390436172
N           1.82668286259029    0.75952340457524   -1.29678071010307
H           1.68978712635480    0.86418242763967   -0.29591360212352
H           2.69423616823768    1.21948280143433   -1.54185777978165
H           1.93761196461977   -0.23140028679517   -1.47638950109215
