    23
        -45.37862778  Gyration_radius:  2.28694255125 Dipole_moment: 3.429
 S          -1.29976314862395    0.68523084186190    1.10061123134270
O          -0.63757433621748    1.66665812720684    0.23927767738593
O          -0.55093680503820    0.41163078026224    2.30463067894322
O          -1.70107573855059   -0.49286055205005    0.35487719564746
O          -2.65478519937273    1.37016971257788    1.56815420079837
H          -2.37904703864268    1.91163677260463    2.30079230872531
H          -0.46057935169880   -1.76510599711992    0.07802854599472
O           1.71066566888599   -0.83297980335186    1.85236941843311
H           0.86816465830571   -0.37561925877395    2.08533379307737
H           2.14401468922640   -1.03985870573428    2.68169490386611
O           1.95566909527347    0.94919230704645   -0.26477187628941
H           2.13875274888182    0.34541914815007    0.47138081469439
H           1.10771372969465    1.36947015066185   -0.04209051014241
O           1.16555549832095   -0.70286244330664   -2.18388864792703
H          -0.13642323689240   -0.04991621619761   -2.23015560850667
H           1.66146505930205   -0.06133275259257   -1.61867084096005
O           0.37318053135788   -2.20889532421700   -0.15099025684171
H           0.99025467564050   -1.95671287649745    0.55345201023084
H           0.96425728436095   -1.44845039329215   -1.56646918759807
N          -1.10629159468952    0.44719434486403   -2.00017063896216
H          -1.62517628865930    0.74303937215017   -2.81879866916399
H          -0.89011435602417    1.22662014642338   -1.33395163253239
H          -1.63792655482796   -0.19166737067939   -1.38064491021152
