    23
        -45.37416106  Gyration_radius:  2.33599208134 Dipole_moment: 5.970
 S          -1.50283713775487   -0.33083365357307   -0.05890332007373
O          -0.76903043150618   -0.88159498328926   -1.18531836515053
O          -0.57238182060804    0.01471289351931    1.04353921129190
O          -2.44639492790276   -1.43453027982396    0.49607318411153
O          -2.30409261364758    0.82734861560687   -0.40501693445278
H          -1.39134076233353    2.13121638753335   -0.10574713402751
H          -1.88399444256068   -2.25123215703429    0.49119144814015
O           1.77890315535652   -0.16667298930637   -1.07944572438311
H           0.85246597100108   -0.44758863907906   -1.24030926960229
H           2.04327558700605   -0.64815509460120   -0.28626429407463
O          -0.56125500030166   -3.21125409451769    0.13564565283745
H           0.21940745859669   -2.92949196414676    0.64483625164056
H          -0.49282089372201   -2.72314459511367   -0.69884560716817
O           1.39086886025408   -1.67631947303170    1.35773463645367
H           1.61300441504671   -1.73528239351266    2.28795087517164
H           0.65737206273544   -1.01791959367375    1.28721808684355
O           1.52097289652766    2.42823677729376   -1.27342282503009
H           1.36451007995625    2.54783376899836   -2.21192683390264
H           1.73497478886934    1.46079239264241   -1.16564841190131
N          -0.52279363155614    2.49140996243866    0.38110984233200
H           0.28015705690324    2.60670594631056   -0.30830154294211
H          -0.32272357526804    1.62647408322282    0.95042718900104
H          -0.68624710513805    3.31928908312319    0.94342388484814
