    23
        -45.36875561  Gyration_radius:  2.37457488125 Dipole_moment: 8.066
 S          -0.97078943574702   -0.85392350526182    1.17163042828984
O          -1.07141364545806   -0.84274430071180   -0.28397384550619
O          -0.74924035472211   -2.14119710476281    1.76226146598460
O          -2.44222773016443   -0.39098165476807    1.65012198567319
O          -0.09461681194942    0.21268150129468    1.64224721122793
H          -0.68548764695708    1.47390540431020    0.75697762994626
H          -2.67328420748955   -0.99973184451319    2.34561207098250
O           1.10214200400688    0.06106646988277   -1.74795890416586
H           0.31475729064900   -0.38270457755180   -1.39401911331339
H           1.76216423150307   -0.00280735003945   -1.01534068154553
O           2.39759403835839   -0.27213760478527    0.54054443524902
H           1.66332505566456    0.00788039190577    1.10742269463763
H           2.35481653487616   -1.24546151182655    0.53965424333905
O           1.44970939463565   -2.82717795466081    0.35211099765661
H           0.69167874476754   -2.72521956041172    0.95288732912806
H           1.08158558387966   -2.96480398604799   -0.52310318981451
O           0.39789380816080    2.54292409003171   -1.93235130229328
H           0.80674365508944    1.62355186288806   -1.92044254769387
H           0.14703844294985    2.70843858154262   -2.84221779107903
N          -1.25973555615309    1.74076565434578   -0.08586848576480
H          -0.64402420625604    2.22286267863977   -0.81988714860230
H          -2.08193068730607    2.27658155571316    0.17118748409358
H          -1.49669850233047    0.77823276474834   -0.42749495642614
