    23
        -45.35186721  Gyration_radius:  2.40779173082 Dipole_moment: 2.485
 S          -1.66773066637711    1.04611362671031    0.16572504068310
O          -1.25296605511465    0.36039175511342   -1.01248132191054
O          -0.65265125415326    1.34667151110180    1.13517669750168
O          -2.84005711688282    0.32265161692102    0.82313611439280
O          -2.31585812091973    2.40943763187019   -0.26490147356794
H          -2.41179398652254    2.94471545042818    0.52079383576180
H          -2.70117172512497   -0.69793039692669    0.62218612703164
O          -2.15373267511197   -1.98897279851467    0.21280743797160
H          -1.87521137268439   -1.79814245036894   -0.68979366610859
H          -1.32307118956852   -1.93891123777882    0.76623797507376
O           2.30347597954366   -1.37981805472122    0.18641436874205
H           2.68278324695233   -2.21252029099869   -0.09615943223422
H           2.06248948944797   -0.87667433074261   -0.64014247293301
O           2.08217068751784    1.68409034646814    0.51152863928076
H           1.16064633523538    1.68286489109221    0.80101035449830
H           2.44194617982120    0.83274114568026    0.77991908589785
O          -0.02126712007133   -1.31390952478203    1.52459052951876
H           0.85490687331779   -1.41688809518220    1.09013494329805
H          -0.14853019038362   -0.36194793893767    1.62489192482273
N           1.55328946091224    0.11569132482603   -1.89225556851304
H           1.78091750507098    0.11211330261221   -2.87839887000833
H           1.89977706840991    0.98383488186174   -1.48984316412395
H           0.54163863668267    0.14439762427445   -1.80057710508192
