    23
        -45.38129269  Gyration_radius:  2.28554628764 Dipole_moment: 2.193
 S           0.96984836492671   -1.48773592627206    0.35755051271391
O          -0.03501967869053   -1.69847859349521   -0.66913238246595
O           0.43772851347314   -1.42975427982022    1.70210858650910
O           1.80992988371340   -0.33158592340487    0.05709570054826
O           1.91167452819218   -2.76007926131723    0.30372037332268
H           2.36365172540722   -2.72926904637086    1.14119290942873
H           1.01440654980070    0.80620664472336    1.02376332480117
O          -1.94435370171365    1.37706459603554    0.30566259629219
H          -2.22483780518255    0.50719499231191    0.67179507294363
H          -1.13927585417623    1.60306993144738    0.81834598945613
O          -2.14490235009498   -1.16188708596610    1.11905405880793
H          -2.14296347696754   -1.72857580625629    0.34325391221533
H          -1.24958403557932   -1.27502812207723    1.49615876865629
O           1.65437696211390    1.75205040042002   -1.58490168837324
H           1.92335546957991    0.96511520163926   -1.06744232567918
H           0.15906767701206    1.12452116739276   -1.90598993646426
O           0.45016389152911    1.41195717426124    1.54356252651381
H           0.27350860063696    0.92934763157772    2.35533432781342
H           1.63269310384199    2.47462520736139   -0.95214240208004
N          -0.72360118355850    0.56004812568767   -1.82763920995974
H          -1.32892711762264    0.97962204901387   -1.03206769713740
H          -0.44594518909007   -0.40077974083126   -1.48978782766053
H          -1.22099489755188    0.51235064393636   -2.70949520020840
