    23
        -45.35127946  Gyration_radius:  2.44864394757 Dipole_moment: 1.755
 S          -2.08812954605433   -0.45083772219285   -0.87531855712957
O          -1.68746911625543   -0.43240944670924   -2.24605636435033
O          -1.69193738955948    0.63473329400832   -0.03929480473329
O          -1.68722433727230   -1.78244937211651   -0.23684864234342
O          -3.66747426991460   -0.51342478751620   -0.85420597047173
H          -3.93492272486951   -1.03416611925407   -1.60891373275856
H          -1.23698258555958   -1.56941209531880    0.68387126002458
O          -0.49022584281417   -1.03557207691406    1.81300860096355
H           0.42983894039810   -1.17207227013795    1.47660944799511
H          -0.67875508256803   -0.09590547834220    1.68529109316280
O           1.02372980085385   -0.24316611540412   -1.67928200044786
H           1.04278122316051    0.70995979199050   -1.40172332108858
H           0.13486187617082   -0.38948227654702   -2.02896177498275
O           1.82046092746563   -1.31135790431047    0.54781548954983
H           2.20035842776570   -2.16942577055009    0.35523931715679
H           1.53586634368052   -0.92996143462871   -0.33477481457885
O           1.93830438078262    1.10223840469568    1.98435811388506
H           2.08660786145460    0.29678047341499    1.46812647135688
H           2.22530881089004    0.91228832353116    2.87868716568306
N           0.77892511649932    2.18652800831881   -0.57648679127211
H          -0.20081594207305    2.01640531191823   -0.37138014670368
H           0.86841253471195    3.12410248920508   -0.94557032434886
H           1.27848061311302    2.14660679285877    0.30581029542814
