    23
        -45.35944539  Gyration_radius:  2.28505284816 Dipole_moment: 4.053
 S           1.51840597677676    0.27536148639914   -0.62842475650139
O           2.24448267748750    1.30757618478467   -1.31659888062031
O           0.35041779866581   -0.19462252152662   -1.37478848449703
O           0.95622507456753    0.88884841883529    0.72320543283573
O           2.31123528706625   -0.85705763987800   -0.15570162117908
H           1.46151828683316   -1.51749503608235    0.75780644630869
H           0.61004944698775    1.76693795600115    0.48813952985384
O           0.68145705755087   -2.06522318597158    1.24215795226120
H           0.20524568175996   -2.47523738016046    0.43214602065211
H          -0.00825704538208   -1.39682795833416    1.64226849999820
O          -0.37799881989422   -2.64563808525834   -0.99108151320927
H          -0.17749606713433   -1.70426909681989   -1.24868746372413
H           0.15591573003455   -3.19354284870109   -1.56954564279818
O           0.44150834356101    3.10080782272929   -0.66182403496270
H           1.11168282920361    2.56741282201749   -1.14194833688448
H           0.86424781107511    3.94047992242892   -0.46763551048030
O          -1.23521805409829   -0.60947122268178    2.04256572244079
H          -1.46095289437845    0.02295302087643    1.29281933879926
H          -1.99616241730467   -1.18360717869170    2.15295083187122
N          -1.90486831254152    0.86790038719470   -0.05301428569276
H          -2.80354492642281    0.71779226912231   -0.49525448115389
H          -1.18531969703817    0.51860824636571   -0.68842466486688
H          -1.76257376737709    1.86831358735209    0.01886988155871
