    23
        -45.36765374  Gyration_radius:  2.30437306518 Dipole_moment: 4.076
 S           0.00947075584118    0.62009322559088   -1.22660249929232
O           0.24418013577085    1.65026893872480   -0.22153745975817
O          -1.10765169692725   -0.23848996332563   -0.87778216280643
O           1.23778369550182   -0.16143582535014   -1.43981576906887
O          -0.34098382527444    1.31246507428964   -2.57404781738902
H           0.44508797347521    1.87799371641340   -2.72884555251614
H           1.53336675168893   -1.05979549477022   -0.32211585924041
O           0.61364491961951    0.23435986049732    1.96336260386381
H           0.56896903475226    0.91520098541178    1.25112177768259
H          -0.33929114017147    0.03670779559170    2.14671862128031
O           1.99412432156215    2.42765510224345   -2.12470364531041
H           1.58837316929751    2.52584237282444   -1.24947362717631
H           2.42315900766846    1.56470860299769   -2.10934721934022
O           1.50867276984515   -1.60882614507965    0.56663136568852
H           0.69826395144471   -2.21127984649490    0.43262168155155
H           1.19400159277183   -0.85507132427078    1.28348357404921
O          -0.75985100935907   -2.66566001511446    0.06545218440676
H          -1.38421904792495   -2.72022205466977    0.79205632214792
H          -0.98443024008235   -1.84468856496172   -0.43326615568036
N          -2.04870781124656   -0.02336565861456    1.83277147043097
H          -1.93424887380126   -0.02068310088200    0.81781674718182
H          -2.35888073090660    0.90563248706714    2.09179861978431
H          -2.80083371348092   -0.66141017745444    2.06370279013816
