    23
        -45.36837559  Gyration_radius:  2.38313567361 Dipole_moment: 4.524
 S          -1.67410855952649   -0.43332358350972   -1.06814573634220
O          -2.06490723311343   -0.98240125354899    0.21314089590746
O          -0.37387821556397   -0.85628947529961   -1.54259526406119
O          -1.80280156196515    1.02648773282344   -1.09850025973986
O          -2.72823402675546   -0.99300109186089   -2.11992849518458
H          -3.54334245358171   -1.02772725051540   -1.62789997042480
H          -0.43983466722802    1.56012055716160   -1.49890403118813
O           1.66204199160183    1.24588211855555    0.60856920735854
H           1.95117359818153    0.31559692692309    0.39568812212792
H           0.86486991040660    1.11704019849634    1.15399170902171
O           1.07955258143382   -1.69840779659036    2.51157931300472
H           1.72667268965259   -1.31854199146458    3.10860754323257
H           0.38158335169580   -1.03225640752367    2.39799127050476
O           1.89818443041679   -1.26889949125184   -0.07263571099027
H           1.09990605585186   -1.31318627003059   -0.62677438886257
H           1.65452986902010   -1.68420684974784    0.77497002967162
O          -0.63271725211784    0.40664963056187    1.86261147471697
H          -1.26314823562850    0.94702195124625    2.34165786177713
H          -1.17437862700075   -0.14120544995728    1.23804537414644
N           0.61049222699135    1.57634580911616   -1.72205879040329
H           0.75371669542477    0.64367140930161   -2.12609125014583
H           1.12564006360403    1.58307527925293   -0.76020541791901
H           0.88898735816429    2.32755528777508   -2.34311351623777
