    23
        -45.37625482  Gyration_radius:  2.31050524876 Dipole_moment: 4.405
 S          -0.33269675412186    1.87724998482662    0.05086895535021
O           0.78565784916053    1.35428377425204   -0.70551223613957
O          -0.44038865618155    1.30505723240561    1.38126208509589
O          -1.59692672649659    1.77267883974455   -0.67261138226033
O          -0.04943548406442    3.42219689315888    0.24377942634932
H          -0.77771282362832    3.70269130140481    0.78894054888470
H          -1.84167383667280    0.27447258017582   -0.96119693691706
O           0.59961755025481   -1.05004685772679   -1.93800070915805
H           0.98641104357861   -1.58098104213957   -1.19218923010066
H           0.82830492971544   -0.12763541773225   -1.72014546818046
O          -1.04634251932042   -1.20305215535377    1.52832583786401
H          -1.30928715679171   -1.39482928016190    2.42964824115755
H          -0.76951235726307   -0.24643896662979    1.52440990411557
O           1.35811064964400   -2.09521398764273    0.35952955885597
H           0.54737684714035   -1.95589403501918    0.87102218234605
H           1.95455128213878   -1.37153281109448    0.63623832848888
O           2.65589151523701    0.23860451814972    0.83944395568033
H           1.95708332919850    0.73242075402864    0.36485461636291
H           3.47941637036011    0.45372523562568    0.39817781927816
N          -1.80102342155013   -0.78694546401690   -1.04666210377461
H          -0.84720158986879   -0.99809525946439   -1.53810552805824
H          -2.59490634649382   -1.15801420630388   -1.55630817876845
H          -1.74531371429770   -1.16470163082035   -0.08576969668505
