    23
        -45.37612502  Gyration_radius:  2.3360960846 Dipole_moment: 5.004
 S          -0.67505387671923    1.89011720783761    0.20319233033575
O          -1.05906035084737    2.08106516702587   -1.17714665920736
O           0.71014138796459    1.48496700118272    0.37582909000585
O          -1.58183251443113    0.98616956589949    0.90722143153150
O          -0.80442306366232    3.30293009000655    0.91010416904448
H          -1.61192404015085    3.63762811923236    0.53379122604774
H          -1.51696640081393   -0.40967174528932    0.27588109660772
O           1.33313522956825   -0.17038945135918    2.29240020159788
H           2.21919282102371    0.10636159535042    2.53437200225321
H           1.00977452577950    0.51321219574132    1.65682737017173
O          -0.64213986848477   -0.17275570575787   -2.51577166811075
H           0.32804053715984   -0.25056393902959   -2.38147862360014
H          -0.85454665647551    0.73920852750833   -2.22096214804957
O           1.75496140665574   -0.33265495405787   -1.34682974645155
H           1.72882247860493   -1.10922129193439   -0.77573592213466
H           1.52027293625770    0.42308529366974   -0.77745686875343
O           0.99860626573839   -2.24625566831100    0.72495574749747
H           1.14688195268206   -1.49867830194786    1.36447219953550
H           1.17720174085176   -3.05491004843310    1.20639877944274
N          -1.35483016857101   -1.29667875689248   -0.29591691895527
H          -0.52213932311950   -1.78782189659986    0.08545353276627
H          -1.12925615242337   -0.94260327633762   -1.29818309971559
H          -2.17485886659103   -1.89253973750154   -0.28141751186018
