    23
        -45.37387234  Gyration_radius:  2.34122685402 Dipole_moment: 6.135
 S          -0.24947931603927    0.68708816533943   -0.58808353022454
O           0.50442224247372   -0.07345454997842   -1.57373847219602
O           0.56485375877218    1.74728138353517    0.01377758391310
O          -0.81591426213837   -0.17225193149486    0.44914299221089
O          -1.42549841247719    1.39803216247305   -1.30761564572585
H          -2.12700027878266    0.68558092044728   -1.39134596262520
H           0.26097892304080   -1.06619745220181    1.49487423506225
O          -1.02448956328560   -1.85592362910781   -2.81097813895391
H          -0.36850057114290   -1.27495544919331   -2.36983460503946
H          -0.93625841711006   -1.68904495630889   -3.75086417733511
O          -2.87311570685714   -0.71801296376141   -1.23591503722169
H          -2.39754277529976   -1.27757029040213   -1.88619023052381
H          -2.41104844939694   -0.86262135078476   -0.39694963813719
O           2.60987488059361   -0.36395772854144    0.02073140316697
H           1.90894473812375   -0.37673476183576   -0.66160024421938
H           2.94140575770558    0.53623583777249    0.01035012883694
O           1.05493195154088   -1.09537139086873    2.07004972760534
H           0.85775185441365    0.31919891911560    2.51229124536132
H           1.79873594045582   -1.03200160818596    1.43234902742879
N           0.60051292675915    1.38733827444355    2.53633402919318
H           1.28319755413593    1.94903778370784    3.03405877835075
H          -0.32777555498078    1.50809673076562    2.92830493504344
H           0.57101276958782    1.64020786514505    1.47085158616091
