    23
        -45.37538965  Gyration_radius:  2.30413444448 Dipole_moment: 5.988
 S          -0.63778295766506    0.63949108931411   -0.97063483929378
O          -1.71322981113951   -0.11319526019028   -0.36921123755904
O           0.21146141458207   -0.17383795947945   -1.83423004850115
O           0.18163459081982    1.31420505757868    0.05473839568358
O          -1.23567938159852    1.75858825639799   -1.88331481593308
H          -1.60827085974881    2.42060332986312   -1.26832985842715
H          -0.20269192968169    0.40344890165569    1.47744128324204
O          -0.76881366807975   -2.58423255641475   -0.66162243745368
H          -1.27007280860344   -1.75631675906795   -0.51097721101701
H          -0.40277396137685   -2.47844822408228   -1.54329778629834
O          -0.45167345333252   -0.26017470534162    2.14718060516084
H           0.54085660243874   -1.62620577238135    1.79296825004411
H          -1.35443431778612   -0.49607851375633    1.91230376829093
O          -1.54317011686579    3.31670916519410    0.24321199311251
H          -0.84710371901159    2.66066788739455    0.44040898153530
H          -1.12349009333020    4.17970307493009    0.25514430822503
O           1.06348680618711   -2.24470288825570    1.22970214530275
H           1.82810987565613   -1.29339032824393    0.42992304973928
H           0.40338740087433   -2.58645804924237    0.57894743683143
N           2.20055674789582   -0.47338024252212   -0.22339350486272
H           3.15768174343504   -0.60403866840147   -0.53230061485397
H           2.06853642664551    0.41337900531067    0.26735612357305
H           1.50347547965512   -0.41633585020798   -1.03201398654835
