    23
        -45.35773406  Gyration_radius:  2.39819843661 Dipole_moment: 4.771
 S           0.35174440367095   -0.46601191311694    0.93345661514510
O          -0.93883188562701   -0.44776161450851    0.30409864361077
O           1.14316614051778    0.71057142402176    0.76590672819408
O           1.13855222153427   -1.69990881073304    0.44034847559901
O           0.18510116199733   -0.75788830505233    2.44335208871043
H          -0.20494717145101   -1.66434217362758    2.48900879005272
H           1.71323453278435   -1.36914559342252   -0.39462150260543
O           0.01463549418696    0.18409639574415   -2.22880847891969
H           0.12361762316885    1.15091667666548   -2.04255211357057
H          -0.54374562388998   -0.14027903344780   -1.50841921670097
O           2.31144017901542   -0.69459122811535   -1.49107488287529
H           2.69625651301619    0.10110250523943   -1.10922046574278
H           1.46726867170788   -0.38741244620040   -1.95833262072663
O          -0.44684757472263   -3.25536013372642    2.03258921768494
H          -0.00098890941062   -3.11835176939856    1.18565670606648
H           0.06707306677229   -3.90401079524387    2.52130075388894
O           0.33226291342165    2.58013683360230   -1.14689622568988
H           0.77466667265645    2.17076015855741   -0.39060988543075
H          -0.59650608311848    2.69309023298484   -0.85494966670321
N          -2.18917572939336    2.21740271768575   -0.11449736819525
H          -2.99318153894600    2.17696199391070   -0.72869161933979
H          -2.48283852448251    2.65931149526462    0.74753968888407
H          -1.92195655340694    1.26071336291223    0.10541634865294
