    23
        -45.37562519  Gyration_radius:  2.2973121248 Dipole_moment: 6.069
 S           1.28770238335250    0.67975551845032    0.26953515132586
O           0.21639854778758    1.40111183747533   -0.43417695361230
O           2.43460987545205    0.42953237153262   -0.54575910206760
O           0.73326261673081   -0.51444096316248    0.91497593601734
O           1.74356496155309    1.63219597064250    1.44491261173935
H           0.99185366008168    1.66937543488412    2.04651761545225
H          -0.58605191572917   -1.67294740255138    0.26847159705312
O          -0.43972833581449   -0.50404809905177   -2.31636101301465
H           0.39766005577228   -0.97072729406106   -2.50853958853835
H          -0.17481037377143    0.29382111776290   -1.83225193013965
O           2.08809073192443   -1.46006045106767   -2.39607932493836
H           2.30579732993075   -0.84581821092258   -1.66593920917564
H           2.69825215267210   -1.25064216157305   -3.10562868080549
O          -0.53051614417558    0.67142721387237    2.79219915919090
H          -0.05689999904810    0.08019260378496    2.14698429674896
H          -0.38651555254291    0.29391606350018    3.66168065227763
O          -1.43267539925467   -1.71694473006847   -0.20864719483274
H          -1.98204667996738   -0.38788706145352    0.25050563560050
H          -1.18305796031003   -1.45725288503388   -1.13333043810804
N          -2.06575390781980    0.66682124716647    0.53010974312094
H          -1.19045825513063    1.09668127602239    0.08586929563055
H          -1.95224535807535    0.76548407966095    1.54531519859339
H          -2.91643244356265    1.10045453415184    0.18963653242226
