    23
        -45.36288398  Gyration_radius:  2.4077832148 Dipole_moment: 7.431
 S          -0.42725441754760    0.62473307014160    0.89126869177406
O          -1.08433339133061    0.99457234687861   -0.33693551651696
O           0.97367135975663    0.90082235182330    0.95213443180349
O          -0.67433727374210   -0.89081263653218    1.13714544511721
O          -1.15026298290523    1.25552562332084    2.07820476521073
H          -2.15572700407007    1.16370353730163    1.84203706179103
H          -0.10732333813966   -1.44200475442975    0.50524953632345
O           0.85412883801855   -2.18845922999921   -0.44986656557530
H           0.95511534849261   -3.11532013695414   -0.22385511475941
H           1.73965650519936   -1.74143024852321   -0.21973704414428
O           2.60020782991476    1.04998801176856   -1.51433822421067
H           1.86823813343812    0.67601969564327   -2.04575969049466
H           2.16993368996960    1.52465397386610   -0.79516309309123
O           2.95915390760956   -0.90069356058955    0.23884107734504
H           2.54356937885374   -0.33819632390230    0.90622373652514
H           3.08188473571545   -0.28010471989379   -0.52073766583091
O           0.32462209999859   -0.15000935302279   -2.38666795208603
H           0.43573105478566   -1.02333297066503   -1.99309846915979
H          -0.26560251619095    0.33844090511589   -1.79051410702453
N          -3.48336992341135    0.92893002319047    1.10964209937799
H          -4.19865199807086    1.64155015282995    1.16568596234242
H          -3.90468518152055    0.02252430164713    1.26225514152441
H          -3.05436484479258    0.94889992047355    0.18798549372279
