    23
        -45.35866511  Gyration_radius:  2.46748869873 Dipole_moment: 2.955
 S          -0.64699668373417    1.27276062060202   -0.24260546020623
O           0.00216285468285    2.35005634171222    0.44670575035664
O           0.09653748963730    0.64473351858543   -1.28975428427526
O          -1.99519505127246    1.76967644893745   -0.83630191363074
O          -1.06879228112067    0.25372312959591    0.82420566524070
H          -1.16142152027995   -0.74366052563165    0.47021306755798
H          -2.41850376817175    2.28309883894997   -0.10926663210026
O           1.30131693654902   -2.52550847601053   -0.14706014620413
H           1.41195980771617   -2.33968246610091   -1.09903151226825
H           1.66285993858250   -1.73381735199992    0.30919285628944
O          -1.20864510432527   -2.11468078547247    0.10335510267570
H          -0.22163232473403   -2.34567669653071   -0.03552375900666
H          -1.50209740465419   -2.63958141470617    0.85185244328187
O           1.31266510897142   -1.41533099466596   -2.62463885275876
H           2.03949664855819   -0.98391897772600   -3.07669937710301
H           0.76141624289692   -0.70405897678593   -2.26037269122828
O          -2.38368138333446    2.91884890384481    1.48574951354732
H          -1.42109776179410    2.99966653025774    1.36263690778512
H          -2.51539724337609    2.23832800914492    2.15056753377137
N           1.99581027328075   -0.07396482009671    0.88428941502704
H           1.56751907988138    0.42539093147319    0.11226348069337
H           2.93030836862686    0.29636652523685    1.01039853172826
H           1.46140779744383    0.16723168736685    1.70982438081129
