    23
        -45.37749248  Gyration_radius:  2.24584790103 Dipole_moment: 7.303
 S          -0.97313554908247    0.71150811502602   -0.94426154168138
O          -2.38068358292211    0.75401774022557   -0.63797179626020
O          -0.44047644541831   -0.65949200612641   -0.89304971177719
O          -0.19323100043564    1.55239270755174   -0.00944934395244
O          -0.75416019971794    1.26396485211806   -2.36627327298746
H           0.12395392540865    0.89194354395559   -2.67325284470566
H          -0.31178405674814    0.92102684269983    1.35060077249421
O           1.44934025776419   -0.00753177169465   -2.74097567428223
H           2.01525485822921    0.40092705691628   -2.04705265685240
H           0.96465745912205   -0.71245268187890   -2.29026259840709
O          -2.57087871961290   -0.95401294644347    1.29411429754333
H          -2.37131873532715   -1.77276031317834    0.83393348370084
H          -2.67729679939857   -0.28290279054212    0.57010452757522
O           1.31826030614817   -1.37232036553109    0.87792995524885
H           0.66306432278471   -1.13803687790654    0.16539393203037
H           1.53702082118527   -2.29634997566346    0.75084961370287
O           2.38796487390507    0.95302026066679   -0.42696409890219
H           2.40481135458343    0.16956496350891    0.13663330782363
H           1.51729425910367    1.36532695749986   -0.26692547698402
N          -0.39804854924531    0.23086304410136    2.17910811764557
H          -0.38099237559470    0.70219789180243    3.07683521938975
H           0.38379454094414   -0.43706858787817    2.06123529844085
H          -1.31341096573009   -0.28382565928923    1.99970048117878
