    23
        -45.37419234  Gyration_radius:  2.36563382362 Dipole_moment: 4.501
 S          -0.62908725021468   -0.65967086635428    0.17424083975728
O          -1.75160689476026    0.22921826162673   -0.04745743202108
O           0.09248363380157   -0.25771636726274    1.40722309169824
O           0.29331351837570   -0.68888417437695   -0.95207368930847
O          -1.19868921784575   -2.07647275638368    0.40776688785951
H          -0.44616087690135   -2.71419772516812    0.57540379995151
H           0.68951837549833    0.87334348529691   -1.39966284880707
O           2.35193021009649   -1.45518801575935    0.67669643284560
H           1.66178496953821   -0.93998905704574    1.13757249663983
H           2.16687335918836   -1.28707689559784   -0.25588999965187
O           0.83295498826142   -3.58939944027593    0.98220969277149
H           0.80830736402922   -3.79482581541618    1.91916178731716
H           1.55330000111863   -2.91936446786932    0.86069303023386
O          -1.90272667325059    1.81813792040306   -2.15617878734575
H          -1.96421155007650    1.20397110986079   -1.39037951610086
H          -2.22122334715873    1.32322689271397   -2.91243458476386
O           0.67436368377583    1.85654489122765   -1.48363295944358
H          -0.16486407543863    2.03046652134591   -1.96281041377969
H           0.27097433561371    2.21940338203065   -0.09949093101368
N          -0.16657431666174    2.25025465692903    0.91318211726020
H          -1.17385524168045    2.36496459363603    0.80985452313692
H           0.23986143505581    2.96291987453259    1.51090472022509
H          -0.01666642036431    1.25033398192090    1.28510173254251
