    23
        -45.36288617  Gyration_radius:  2.43382127685 Dipole_moment: 4.555
 S          -0.97413283275384    0.38979796185818   -0.14905778258935
O          -0.45389659788488   -0.05896046789437   -1.40992756948027
O          -0.29907396008445    1.49805422505435    0.46669975165224
O          -0.96929687989962   -0.78247846919779    0.85010388187566
O          -2.46208105063375    0.73387144296386   -0.32029288689312
H          -2.72637109335170    1.22828534236265    0.54457549172377
H          -0.71081570985646   -1.64998365253825    0.34339486227523
O           2.26817807266034    0.54844441102850    0.24528914646910
H           2.40019391903439    0.77915510081415   -0.69411707536284
H           1.42337147186076    0.96011927515034    0.48052025431450
O          -0.17977061329131   -2.66629895265012   -0.59968481076275
H          -0.30304427288766   -2.13627907309866   -1.39710865673525
H           0.78773150193570   -2.59364608529803   -0.38631654905462
O           2.30618748641063   -2.09330064223353    0.03679772381614
H           2.64762408152029   -2.43905692373722    0.86255773583888
H           2.31558222644844   -1.10682441595127    0.13140231165135
O           1.96581032031283    0.68954246700672   -2.45824905191499
H           2.30297458326270   -0.12641213936802   -2.83414567279361
H           1.03813468152866    0.51837042057042   -2.22380995095307
N          -2.67704718057745    1.95906092177045    1.91497844558872
H          -1.67925993636428    2.14056878029295    1.84554927374355
H          -2.85008991592633    1.37381191957384    2.72124475340295
H          -3.17090832142812    2.83415854346387    2.02959639420322
