    23
        -45.37749243  Gyration_radius:  2.24595805 Dipole_moment: 7.305
 S          -1.32647823976291   -0.55871307758007    0.52162854242083
O          -0.51747168006417    0.61672723181900    0.88195135079173
O          -1.33436545390131   -1.54844657116962    1.56914314630742
O          -0.80223815545078   -1.11829690785143   -0.74377349757421
O          -2.77254593188622   -0.09172285356843    0.26452320140882
H          -2.69744314477455    0.80844824937771   -0.16888956523112
H           0.64714205024814   -1.44600427410013   -0.51074605290862
O          -0.40987314266699    0.96680531651992   -2.38478967529955
H          -0.62879311079058    0.11720083065256   -1.95593789264000
H           0.45822851425786    1.20895480317589   -2.03917945127308
O           1.11820588505009   -1.49948856598727    2.38717065509224
H           1.16236168739522   -0.62468129262350    2.78039855964640
H           0.15245746992875   -1.64017025190646    2.20429103285633
O           1.65511114518693    1.22073939319550   -0.40360719413485
H           2.03712546901478    2.01238239844584   -0.02258498258096
H           0.81612617862057    1.04195096419374    0.10240594154626
O          -2.08138523678184    2.19254913870030   -0.69320910001766
H          -1.58870955749778    1.91055356148682   -1.49722342391040
H          -1.43710050340180    2.15034350842839    0.02660899837314
N           1.67728058737221   -1.45477795252349   -0.18064334070582
H           1.61453885789133   -1.55884105010308    0.87769021973061
H           2.04206042006142   -0.51079718635052   -0.39768141540210
H           2.21576588194373   -2.19471540229608   -0.61754605647305
