    23
        -45.37622503  Gyration_radius:  2.25353566728 Dipole_moment: 4.593
 S           0.18388382875002    0.16212797515306    1.31207456924271
O           1.31544855826755    0.12065411134312    2.19875078324293
O           0.23363708767363   -0.90945662042242    0.30154290927829
O           0.22206102052079    1.51790550125249    0.50005699951392
O          -1.12497800380973    0.20860597528360    1.94576423801251
H          -1.96070029704938    0.50569964736769    0.69208917055773
H           1.01595341932251    1.51831958434404   -0.09057835564226
O          -0.40559070287892    0.26085278145491   -1.98358450878321
H           0.30951201061958    0.87849735319978   -2.16244710106877
H          -0.06019857170003   -0.32461814972815   -1.27629103196139
O          -2.09412684695841   -2.19829783046824    0.25019304153532
H          -2.29802083262183   -2.35944170418556    1.17391039489898
H          -1.16045634198254   -1.88997349726374    0.24343933342086
O           3.01619407222385   -0.69813652613521    0.36043368769363
H           2.50489318417108   -1.45171144837936    0.05115005373045
H           2.54122400052098   -0.40493301289247    1.17034579950849
O           2.27314561256810    1.32739050932275   -1.11549279820237
H           2.65294907468400    0.52554088061924   -0.65853124464803
H           2.92781531774828    2.02088263700252   -1.01396870496070
N          -2.44409335621014    0.37047945384451   -0.25872928919620
H          -3.28567953690358    0.92685556107391   -0.36142837896555
H          -2.62387045276480   -0.66530303252453   -0.26202683092351
H          -1.73900224422584    0.55805985082623   -1.01667272625612
