    23
        -45.36596492  Gyration_radius:  2.4039720277 Dipole_moment: 1.812
 S          -0.41816438916188    0.77207909750005    1.31162215268218
O           0.05833233769025    1.40699601509045    0.10670117508221
O           0.61937115625478    0.29970897978514    2.18463415083366
O          -1.36432522268685   -0.37663011528059    0.92959162677078
O          -1.34762543453870    1.72664680598132    2.06414505086683
H          -1.99307286472563    2.04442904727784    1.32651167829818
H          -0.85974196612669   -1.20772626422446    0.53118890212747
O           0.42158493674490   -1.43893460506326   -2.52002105626188
H           0.92988330938448   -1.98851071224582   -3.11841971713610
H           1.03895766874485   -0.73681487209097   -2.19505945466511
O          -0.04844556337871   -2.26998947035066   -0.04648363266352
H           0.01176824013495   -2.04584023770173   -1.00842708921828
H           0.84578902570723   -2.12030194076072    0.31545251801837
O           2.30053190289653   -1.35335734541922    1.01673983589812
H           2.87665563714838   -1.77565628284662    1.65650279473254
H           1.76078192647742   -0.70188239861036    1.51932525308040
O           2.06400070294562    0.24691572659410   -1.30133504281430
H           1.40674508057901    0.82201407588750   -0.87085231997343
H           2.42728833187639   -0.29636621615065   -0.58859041383479
N          -2.63919515357032    2.25373262779691   -0.07461862573643
H          -3.07289839831324    3.12355844851913   -0.35458975039819
H          -3.25391850246620    1.48497504071844   -0.30741146505379
H          -1.76430279162072    2.13095458559443   -0.57660656064183
