    23
        -45.37199077  Gyration_radius:  2.36562359134 Dipole_moment: 5.745
 S           0.07023715134573    0.45535473658933    1.05093819765503
O           1.02236865533240    0.61762155205881   -0.04899756736959
O           0.50034224647156   -0.51509674911670    2.02163632546538
O          -1.27375119317803   -0.03029600003228    0.39618183407011
O          -0.29273449038252    1.75558159020118    1.62633951203726
H          -1.11774728044558    2.30355665343048    0.64364084080489
H          -1.13110864613481   -0.97078193119949    0.03162483067581
O          -0.78813252106254   -2.35247287081174   -0.52616305468142
H           0.03105532997902   -2.16755756363812   -1.04662606068257
H          -0.45495944574183   -2.86672171728564    0.22496581212095
O           1.69799269711327   -1.72772363208752   -1.17902873130882
H           1.59213735953750   -0.82582393285596   -0.82122045443238
H           1.97445527550463   -2.27225809558982   -0.43172855241790
O           1.13267421420111   -2.97797281994853    1.36491786167836
H           0.94442313699875   -2.05641462224284    1.65572771977960
H           1.39204570122892   -3.45369180475638    2.15474531701174
O           0.31183942955559    2.27957469368682   -1.90439493416621
H           1.05000054101854    2.87804720789235   -2.03110393288579
H           0.63935541626355    1.58045605835878   -1.27693497432758
N          -1.72107784106423    2.56405853065882   -0.26873768860811
H          -2.31805816170455    1.75223575582403   -0.42042932843822
H          -1.00306741701938    2.61144956766140   -1.04546946778917
H          -2.25829015780331    3.41887539318122   -0.16988349417869
