    23
        -45.36596497  Gyration_radius:  2.40399857089 Dipole_moment: 1.813
 S          -1.56797023199847    0.15471335477111    0.07815344002965
O          -1.85942437924697   -0.98771949621310    0.89774082699819
O          -0.83696782845738   -0.14679026506956   -1.12884941567464
O          -0.79121900782766    1.20891948820034    0.88179070071351
O          -2.85969235909914    0.89581394082088   -0.27357294798546
H          -2.53054057734096    1.63750382684300   -0.90912832153892
H           0.06945564491874    0.82044006494680    1.34270955138234
O           0.27629297440743   -2.36524243745842    1.57818662815587
H          -0.58000772619588   -1.95032543066533    1.32725011875401
H           0.07213771057772   -3.01774703396443    2.25057716284795
O           2.92650134362726    0.07722141089256   -0.16862086978785
H           2.38273958148167   -0.62038277016104   -0.61290120751863
H           3.80176455140432   -0.29596676231331   -0.05419187000084
O           1.25418324209449    0.17186994864215    1.88670670658744
H           1.02450880820444   -0.77657700756773    1.91391530833158
H           1.93761942861804    0.26078533471062    1.17668223940567
O           1.28617820273971   -1.82833925258252   -1.00676144238976
H           1.05152424625029   -2.27661437269148   -0.18268740846143
H           0.51083088704060   -1.28215998728694   -1.22707025688967
N          -1.59688609154824    2.49505226567850   -1.81182959176452
H          -0.96983324314394    1.72323262412700   -2.02075558378464
H          -1.09247557999693    3.17933265125852   -1.26371266117944
H          -1.90871960651027    2.92297990508329   -2.67363110623455
