    23
        -45.36051020  Gyration_radius:  2.37256099443 Dipole_moment: 1.201
 S          -0.35772105407517   -0.98494799584499   -0.15866699565147
O           0.78328131239772   -1.43873968614316    0.59516617527306
O          -0.61048377288901   -1.68493449650809   -1.37717405899227
O          -0.18418169780044    0.52554819477828   -0.46983105916880
O          -1.56551130487244   -1.01321852957936    0.78456585093819
H          -2.19607836715288   -0.21391077381683    0.63734753083054
H           0.19415158217749    0.56752846162808   -1.42912921453286
O          -3.00421284381978    1.04910020690880    0.63444500280563
H          -2.28463549326273    1.66267424347807    0.96329991774984
H          -3.67385701450280    1.01961326927179    1.32184697098135
O           0.32001756998552    0.23192888052694    2.64585895964670
H          -0.20706110577482   -0.31119836841208    3.23520990929245
H           0.60848388377671   -0.36245433748160    1.92903696449510
O           0.77297565077899    0.22732992955287   -2.76942442286684
H           1.62439156299428   -0.19167806460568   -2.45918980514483
H           0.18105534994769   -0.51753213672406   -2.93716831401938
O          -0.94367577877361    2.36607823151609    1.54784488673429
H          -0.47207089077606    1.66842427840260    2.05120563274872
H          -0.43321281709719    2.46898584428094    0.73998501341004
N           2.72699452065672   -1.10378492460929   -1.54917285874495
H           2.98992988172262   -1.98085133258687   -1.98154963427476
H           2.15710906671359   -1.32633977622460   -0.73454479276009
H           3.57431175966893   -0.65762114783125   -1.21996164872943
