    23
        -45.37469453  Gyration_radius:  2.24181557266 Dipole_moment: 4.335
 S          -0.65287994975245    1.29026521474962    0.63415686013771
O          -1.20178397084715    0.65562194521581   -0.56848267306684
O          -0.30213867242817    2.66577432226825    0.43619627130708
O           0.69952581094083    0.48089953689587    0.92862160867804
O          -1.47852141249393    1.00171203732382    1.80037756367384
H          -1.29716874333634   -0.41787885615006    2.04927524266616
H           1.39456499241380    1.04537342537825    0.47802571569615
O           1.29909842309222   -1.59612785707348   -0.92018764096077
H           1.35819325031790   -1.01328981521841   -0.15131169371488
H           1.27437230257666   -0.99436614615550   -1.67911852827083
O          -1.29024185438243   -1.96803239662275   -0.42113625717544
H          -1.46261773555597   -1.01643925080407   -0.60623548823355
H          -0.35997871214061   -2.09258643515150   -0.72020746941954
O           0.65589958435616    0.69989667197758   -2.39752179191662
H           0.29550906741360    0.96511200469697   -3.24486466627205
H          -0.09984056051709    0.71927866151565   -1.75822749879896
O           2.09774538498511    2.07860724292446   -0.50820643511744
H           1.38890030265353    2.70307994565567   -0.27136940973222
H           1.83878581759658    1.69894125770057   -1.36599232892533
N          -1.08906529564975   -1.49330583236695    2.09757551543947
H          -1.20069455870605   -1.83342271536253    1.05829901865954
H          -1.73769538083411   -1.96109608077179    2.72243537741248
H          -0.12996808971550   -1.61801690062676    2.40789873795145
