    23
        -45.37762312  Gyration_radius:  2.30389045858 Dipole_moment: 7.365
 S           0.61480479421824    1.31852339482326    0.06431838445319
O           2.03746158349447    1.19098222979752    0.26833898222186
O          -0.16517568346489    0.75010332327591    1.16556146477211
O           0.21090935513151    0.66623131724142   -1.20400106552609
O           0.25909921145781    2.81436873349477   -0.05818061750984
H          -0.72363677428285    2.84538179507385    0.11926146955772
H           0.58634850951258   -0.78685143839623   -1.18339830919902
O           3.01446377295068   -1.21185886102955    0.40571096347315
H           2.68541745445817   -0.27698467902986    0.47282862510783
H           3.91198723111035   -1.14051007157976    0.07545138481235
O          -2.20538178995010    2.42556155544624    0.60699998618672
H          -1.80466566892384    1.87811745302607    1.29613349248424
H          -2.53213096229787    1.78214453690098   -0.05772554264759
O          -1.09598152470142   -1.64421087821491    0.95420479573962
H          -0.76619376333380   -0.70982264674285    1.07839029379425
H          -1.11923974005778   -2.02766305982340    1.83226370471563
O          -2.42030025051819    0.25534585355437   -0.98023743834477
H          -1.48905756291355    0.43142983995143   -1.21897803314495
H          -2.39615623569353   -0.50466010074603   -0.38982347542047
N           0.80324641979753   -1.80901997417432   -0.90741688511889
H           0.78007595254642   -2.43653158967249   -1.70345458292927
H           0.06777286240578   -2.03597137369309   -0.19861926732892
H           1.74633279909994   -1.77410538948880   -0.43762835009525
