    23
        -45.36235328  Gyration_radius:  2.43946426874 Dipole_moment: 3.764
 S           0.97397902087698   -0.05360731667390    0.48526481346715
O           1.49057246286178   -1.38565783456570    0.54287025225946
O          -0.05048258114671    0.26556235083144    1.44985808378514
O           0.38188250037986    0.21602337406700   -0.91498726749802
O           2.13611183945473    0.93236441733122    0.62197307370935
H           1.81050551567478    1.90246138336487    0.66341346829145
H           0.66027556511312   -0.57337170189478   -1.52573435467036
O          -1.12551709405823   -2.21224320740520    1.22987786842381
H          -0.89968221221133   -1.28250635969653    1.39929788282722
H          -0.33337328375103   -2.70139946649047    1.46936849952447
O           1.03591242907964   -1.89746878822497   -2.08436266950573
H           0.17350939515273   -2.36822569313028   -1.98724558987788
H           1.55778820589125   -2.16147219078054   -1.31331916878605
O          -1.34556193422428   -2.84690100425773   -1.38394654487707
H          -2.14532116849991   -2.44310586187418   -1.72350521706264
H          -1.33185118432453   -2.66730750102206   -0.41818811899225
O           1.21455687879704    3.29398389143585    0.81079195662218
H           1.17696779371033    3.48252845262395    1.75137310867603
H           0.26806245638120    3.14333080243435    0.51266925568257
N          -1.21777852177659    2.52259939474671    0.15517940555016
H          -1.22598108774658    2.25498629990486   -0.82108711970614
H          -2.12336504092675    2.91069208903997    0.38683750472191
H          -1.08120995470225    1.66873447023592    0.69360087744022
