    23
        -45.36596484  Gyration_radius:  2.40370123048 Dipole_moment: 1.816
 S          -0.49259085793269    0.20509811384097    1.48418191254898
O           0.16223148374900    1.21937037206318    0.69400770802501
O           0.40166758331084   -0.70729775897351    2.13968965929745
O          -1.48316235638060   -0.55965046186021    0.59294611171504
O          -1.41626848945073    0.86689162942542    2.50918226464455
H          -1.94946908350129    1.53689691905648    1.93589372544533
H          -1.00895667245027   -1.20611585660061   -0.08658011969827
O           0.57285130045004   -0.30452519145066   -2.85746612106521
H           1.20799844213772    0.11835993715624   -2.22693441816267
H           1.09493457825359   -0.61078729441678   -3.60051826373579
O          -0.23148429071222   -2.02384361467866   -1.00630923158911
H          -0.04787735072512   -1.43006489019926   -1.77627170104782
H           0.62713605809542   -2.14803572778896   -0.55867749139290
O           2.05530015085186   -1.92213546156435    0.49315410303480
H           2.52403796289976   -2.63528694558561    0.93043494452685
H           1.51992009442496   -1.47648664343905    1.18825213836622
O           2.20823233937720    0.51030412919101   -0.93759325363363
H           1.55775713938787    0.93125631761052   -0.34791745513880
H           2.44357379635897   -0.31950481348144   -0.50026153220551
N          -2.42053180700954    2.38354527802071    0.71717751177943
H          -1.50987177393376    2.37395015379445    0.26647176586364
H          -2.74675181494298    3.33697493228968    0.80446672142296
H          -3.06867641245853    1.86108687782210    0.14267103092512
