    23
        -45.36754805  Gyration_radius:  2.3995946041 Dipole_moment: 2.397
 S           0.25973817142994   -0.51187009849930    0.74280182253506
O          -0.87545411113377    0.06406844017847    1.44070603990690
O           1.46359012785877    0.25488119730793    0.87078995535902
O          -0.10617469360667   -0.71295742735263   -0.72135519797239
O           0.50002003105103   -1.93819660253781    1.24671047033860
H          -0.24542242762300   -2.50682852816337    0.84629107514371
H          -0.02771113277449    0.25509161640825   -1.29080327540093
O          -1.44694291244490   -3.08024180791998    0.08097356163653
H          -2.20164704712649   -2.57712141059070    0.47244588758470
H          -1.30254043028581   -2.69593465633560   -0.78969549984241
O          -3.10406240754760   -1.35194103859183    1.20438786084292
H          -3.46590314527694   -1.47734981321661    2.08351279661710
H          -2.35937490069295   -0.72120572612944    1.30118520882566
O          -0.24055344572797    2.52483782674824    0.57222686762587
H           0.65134962895286    2.52465667855581    0.93123498702928
H          -0.67104605928197    1.75723154669075    0.98802988366492
O           0.15407217189072    1.45944889265484   -1.81987597702967
H           1.15781684346501    1.50694377039684   -1.85136843467573
H          -0.10750021166835    2.03766994194938   -1.06100975495059
N           2.76191111237002    1.36376998814940   -1.44084799450279
H           3.30571421328063    0.70760647042098   -1.98630904348848
H           2.56750731777409    0.93280990904803   -0.53676768742250
H           3.33261329775687    2.18463081048935   -1.28326353220546
