    23
        -45.37419223  Gyration_radius:  2.36576055551 Dipole_moment: 4.500
 S           0.32366753834950   -0.85842437692270   -0.14846833017147
O           0.75431144174547    0.07773365666119   -1.21658103561186
O          -0.98603732681956   -1.39158707222890   -0.46409459904442
O           0.35869159156922   -0.18638442127921    1.14275697734545
O           1.31631478244674   -2.04199796649916   -0.13777455665741
H           2.23504474461954   -1.70307337868836    0.06776995217410
H          -0.90699985462317    0.90068513424616    1.24923410982948
O           3.66828417845707   -1.00989406733380    0.24755428888707
H           4.15857229758979   -1.04904971279593   -0.57636126117763
H           3.39601468192273   -0.06430014344721    0.36737834371222
O          -1.75073437748317    1.37848324056715    1.06437135870430
H          -2.43919343055158    0.70298541968620    1.24793282361130
H          -1.73533996231996    1.34621420766777   -0.42161995409265
O           2.48484210388884    1.34475404014892    0.35518296999467
H           1.91675225918870    1.05380059930238   -0.38431522131458
H           1.93383403231925    1.18760532922451    1.13229031137331
O          -3.11224014503196   -0.91140487502809    1.03366674229033
H          -3.12165696196683   -1.50774471960768    1.78372229324050
H          -2.36159470549701   -1.20411672507359    0.46959966214198
N          -1.59526451905730    1.08194966700875   -1.48397594341471
H          -1.78434116261822    1.84811767116388   -2.12237858754895
H          -2.17744046551960    0.26848586313054   -1.67825343146436
H          -0.57548675061689    0.73716262010271   -1.52763691280570
