    23
        -45.37540553  Gyration_radius:  2.29746369512 Dipole_moment: 5.641
 S          -0.08569084100333   -1.64541706971999    0.31033343088839
O           1.04851712719687   -2.09008720957523   -0.43760084952495
O          -1.07111210346083   -0.91985264469693   -0.50958778776810
O           0.24093392120834   -0.86005734507334    1.49729803560761
O          -0.85285149505764   -2.92805254731880    0.82696922268705
H          -1.61511833755546   -2.55547568185557    1.25819947413567
H           1.38051162823062    0.50888764612548    1.13344222199283
O          -0.13399285692794   -0.01722506244087   -2.85366299346896
H          -0.09039896318210   -0.70470968638602   -3.52025541777477
H          -0.51974186498628   -0.43658821818705   -2.05952896078271
O          -1.49623320858978    0.80132705586343    2.57822870280090
H          -1.13542456387738    1.11770598198580    3.40814455761565
H          -0.86941034830429    0.11043069402156    2.25926344160366
O           2.28613861303486    0.03840524689057   -1.55539552218981
H           1.56529292943901    0.21281719554348   -2.18600141374469
H           2.07653097198682   -0.83930532007255   -1.18936097993358
O           1.60859880378559    1.31059478295274    0.62963699755908
H           2.03114809665191    0.96552839948564   -0.20066198542847
H           0.18061207431666    1.67620687423047    0.25363186043831
N          -0.89560653959739    1.62493349174447    0.10364455289326
H          -1.33646823097442    1.65735597288465    1.04271854769600
H          -1.06758859114130    0.64582030655004   -0.25269270112840
H          -1.24864624119559    2.32675709709428   -0.53676244416847
