    23
        -45.37068247  Gyration_radius:  2.3050142572 Dipole_moment: 2.010
 S          -0.58512529845652   -0.02387177509680    0.96701118872198
O           0.06456638229856    1.26585544357280    0.78077167810055
O           0.38900925714048   -1.10692545174240    1.04285589268335
O          -1.55268038236009   -0.27212850871088   -0.11500785687407
O          -1.36738458173051   -0.00926122282928    2.30021699329585
H          -1.99575960975174    0.75524794785894    2.15767800621823
H          -0.92621544920502   -0.53248496776854   -1.37380152001338
O          -0.25507005247129   -0.70763471104786   -2.17645168316707
H           0.20858185096373   -1.58062022102530   -1.89817511950379
H           0.46837208199710    0.05555255136577   -2.02532621195890
O           0.94244858469945   -2.65622497695456   -1.05319099441585
H           1.89294674548236   -2.49736446556814   -1.05132561517312
H           0.63194794891882   -2.33347762212593   -0.18076296600863
O           2.82311427153985   -0.70788754614825    0.07133722976952
H           1.97615212280096   -0.83383578247323    0.55619098019320
H           3.44647614555924   -0.36140965339272    0.71100213326737
O           1.41237928039458    1.00839982176507   -1.44993631037443
H           2.14116292297081    0.46447540171660   -1.08628154065186
H           0.91924965126260    1.30403026831578   -0.64618339235099
N          -2.63699812497574    2.02808087083197    1.32356795111671
H          -1.72442310409396    2.35408289556661    1.02088119083161
H          -3.20464864606983    2.82166004482622    1.59251613081908
H          -3.06810198691915    1.56574167906886    0.53241382548002
