    23
        -45.37171584  Gyration_radius:  2.3560199658 Dipole_moment: 6.991
 S          -1.26568787885164   -0.76603957542603   -0.44703591225864
O          -0.03760317988252   -1.16927480663607   -1.12187329593454
O          -2.08720153754562    0.11946792432179   -1.24956007827933
O          -0.94856179539314   -0.12459192758084    0.84907390366387
O          -2.07989700310722   -2.04503229181681   -0.13323770948159
H          -1.39608481579803   -2.69777086484917    0.18822694453325
H          -1.19350549696860    1.40938390955924    0.67451587941982
O           2.01099321729256    0.32583236639246   -0.64704085770154
H           2.59829218516380    0.15829069915545   -1.38687089505114
H           1.20861921425969   -0.23808040712770   -0.81843681635900
O           0.06089886640178   -3.39013616215212    0.44604870058074
H           0.37397708329557   -3.04460093205556   -0.39988981713952
H           0.52592074195632   -2.84444715671748    1.11640956030000
O           1.24239030286338   -1.34130691554806    1.76063170041219
H           1.89180011815936   -0.92474044134972    1.18488218876406
H           0.41167414014221   -0.85781233804828    1.58589226332719
O           1.15510873961721    2.83812144005864   -0.52931290209252
H           1.68139095147799    3.24420759034777    0.16189548017388
H           1.49045700429271    1.91007590652064   -0.61223199494201
N          -1.37994244285348    2.22954390434998    0.01662174347227
H          -0.44556110083995    2.62540247007263   -0.26375604159666
H          -2.01504510693280    2.92608376273892    0.38982214839021
H          -1.80243221674143    1.65742386572526   -0.76477421222721
