    23
        -45.37622499  Gyration_radius:  2.25341395278 Dipole_moment: 4.591
 S           0.60552033618103    1.17989247982292    0.15116152783644
O           1.67628279528906    1.87157705288516   -0.51466037367949
O           0.89680240033141   -0.25435253355829    0.32404373394763
O          -0.68700137203497    1.24743725229530   -0.75655561542648
O           0.14527783952589    1.76355482904305    1.40187206021764
H          -1.11016656723331    0.89952226548606    1.59243120022662
H          -0.52394907860549    0.73867129016607   -1.58942683092714
O          -0.17622259098883   -0.24840019654970   -2.84347484682381
H          -0.24158054681764    0.20606801809855   -3.68545959969620
H           0.79978451322627   -0.31883259021108   -2.64745844949102
O          -1.33258018775114   -1.50305336672519   -0.36195807614516
H          -1.44409019900054   -1.32833369491214   -1.30105192020051
H          -0.40725435978021   -1.24252501552593   -0.16658243915846
O           0.46817254025150   -0.95496772570641    2.85516641236156
H           0.77075061732811   -0.81158625538713    1.93063929339330
H           0.89859808810014   -0.26840607805674    3.36909779573478
O           2.32016911776142   -0.15269641165073   -2.07393083753742
H           2.23552750641666    0.69562922759152   -1.58343735751348
H           2.40809917536790   -0.81396080172402   -1.38114553959517
N          -1.73063561379864    0.04225319112876    1.78258714122848
H          -2.62815217277365    0.28154165967982    2.18950094430327
H          -1.11962111358144   -0.52679278545761    2.42130177492601
H          -1.82373114737313   -0.50223980078134    0.88734002204863
