    23
        -45.37875872  Gyration_radius:  2.31708883462 Dipole_moment: 3.870
 S          -0.70879653782775   -0.96496697222576    0.76635713078706
O           0.21719860025936   -2.02822949565141    0.41170581947641
O          -1.15419462855348   -0.24254656923667   -0.42539330709542
O          -0.14169391777282   -0.04144450758022    1.74620566470536
O          -1.95516586422749   -1.64498297300176    1.40911987639025
H          -2.43043570585676   -0.89915502605748    1.83113617301085
H           1.19405791449866    0.88914299415524    1.17276207836194
O          -0.19148909063617    2.20087784556919   -1.00136674801365
H          -0.69881991957080    1.42250448688185   -0.69854034573466
H          -0.10688798316483    2.09431812323504   -1.95168281854456
O           0.12096240713805   -0.44111469337897   -2.71194014277580
H          -0.26003775306797   -1.15160763261298   -3.22967769950693
H          -0.43980828507683   -0.37285393886941   -1.89969921983803
O          -2.52030914010513    0.63643825709921    2.60208210268097
H          -2.56489647221882    0.65529094519949    3.56071990231973
H          -1.56978785107327    0.66199905208853    2.36714026460367
O           1.80750840539870    1.31905255897395    0.54058763604323
H           2.12093306054327    0.12007194253734   -0.35314097872917
H           1.21418845519330    1.88165885985734   -0.00350174704781
N           2.07763171799845   -0.80525140920524   -0.91631342885802
H           1.55874460501044   -0.63743022441618   -1.80500267593735
H           1.43917080957475   -1.43624977209685   -0.34308325142031
H           2.99192717354781   -1.21552181125168   -1.06847426487090
