    23
        -45.36692911  Gyration_radius:  2.38562314279 Dipole_moment: 2.508
 S          -0.58379856325032    0.30096125757334   -0.70272211344893
O          -0.04540316757656   -0.70683619552137   -1.56547854071120
O           0.16251147601925    1.54566618717779   -0.69511109662393
O          -0.68238833623625   -0.20947058045657    0.73213380336643
O          -2.03483205491298    0.57617682379414   -1.09982737590373
H          -2.42579700802081    1.29528621708892   -0.49740589077756
H           0.24785295213027   -0.72726547847180    1.02124425000673
O           1.44864336522104   -1.33344113672215    1.21446463522141
H           2.03901622944327   -0.77495345669948    0.65344591370172
H           1.31609083304777   -2.17809259368070    0.69172068849381
O          -2.86141008573054    2.45867521748840    0.41520113535399
H          -2.08296533217599    2.56284058554133    1.02260758785422
H          -2.91436152671126    3.26872058582848   -0.09746065692741
O           2.49459901864200    0.20439974744783   -0.68386040396273
H           2.31793939473781   -0.32362095620446   -1.46761801991809
H           1.81537517241453    0.90048438097975   -0.69990072376063
O          -0.55743346027142    2.51142824526605    1.68012438378261
H          -0.48745854055844    1.71767799241988    2.21733825886689
H          -0.12746848540861    2.29342215048748    0.82970039832523
N           0.85528423946509   -3.24034219079243   -0.51873410089570
H           0.11790591221873   -3.88945645318936   -0.27589816371236
H           1.54041964653714   -3.74111254307666   -1.07031693014594
H           0.44767832097977   -2.51114783627316   -1.10364702818003
