    23
        -45.35916863  Gyration_radius:  2.3933050473 Dipole_moment: 2.632
 S           0.42415313288056    0.98357376091727    0.33207083877677
O          -0.25684726555894   -0.28500923519637    0.53711883307841
O          -0.44648446054340    2.06991754837853    0.02802433419784
O           1.49518463655465    0.78245554009851   -0.73945920045909
O           1.22737348059192    1.33233382495140    1.59082885365320
H           1.90681904604860    0.60748096865064    1.77566857063888
H           1.11892011380566    0.10464055209149   -1.43452860323544
O           2.81698279334657   -0.60415796542554    2.13859322043984
H           3.05995152955801   -0.60955926298606    3.06725252001543
H           2.23373624396939   -1.38336404791205    1.98597901209519
O           0.87351856725947   -2.36782750173360    1.71418227515233
H           0.39082383021348   -1.66815534831661    1.22600672955242
H           0.26107050078206   -2.71006733501376    2.36800121384967
O          -2.89532186674570    0.44590339181876    0.20263294666640
H          -2.03331384993161    0.04529855963285    0.38655403561674
H          -2.76771039260939    1.38131014615895    0.38077360320958
O           0.31996582236483   -0.82511132399039   -2.25061435613288
H          -0.46703619997553   -0.21535954370068   -2.44676289712969
H           0.00165106826562   -1.46870502448815   -1.61113202067722
N          -1.63406920295042    0.89844030266766   -2.38324701061026
H          -2.01305259570585    1.32089023261678   -3.22124774656469
H          -1.20831685590851    1.62848728482354   -1.81773610251436
H          -2.40799806567977    0.53658446599194   -1.82895902965398
