    23
        -45.36207023  Gyration_radius:  2.43427432724 Dipole_moment: 4.416
 S          -0.98445243835712   -0.50930526388812   -0.10502194591109
O          -1.18319113613280   -1.12333533167019    1.18118121692553
O          -1.27407650700759    0.89093871899850   -0.18280714015493
O          -1.82034304438722   -1.25219068400202   -1.16528525764283
O           0.47444292663861   -0.79139148991072   -0.49822632719543
H           0.85220104728864   -0.18364022960154   -1.24814408393417
H          -1.67378372180604   -2.24289256231044   -0.96039820127463
O           0.50774983580995    2.79047607630919   -0.99245963509863
H           1.08158338366892    2.67509082821529   -0.20797396865218
H          -0.31480366734131    2.32743750547762   -0.76663788536758
O          -0.27201883873595    1.10401255498531    2.43871096955651
H          -0.51901015483359    0.19377485218410    2.20989766058959
H          -0.91780020521344    1.64735682011752    1.97654636560925
O           1.93281778949302    2.03818435941003    1.19243560234058
H           2.34941363375336    2.63924114087252    1.81236703638625
H           1.19984966289394    1.60841943841581    1.68467741338330
O           1.48785885927141    0.73975146651897   -2.22217248779158
H           1.11275138863653    1.61600449873165   -1.89803751509538
H           2.42207358796184    0.75945180872182   -1.99921546803063
N          -1.21058364471422   -3.56854199474971   -0.23957592457164
H          -0.31231622341342   -3.92287975356696   -0.54002374169205
H          -1.84668444712306   -4.34568523132815   -0.11955051196292
H          -1.09167809661062   -3.09027751812991    0.64971382951444
