    23
        -45.36311415  Gyration_radius:  2.38046543284 Dipole_moment: 3.351
 S          -1.11658481460683    0.61621523644042    0.23235723979441
O          -0.72522148714493   -0.70049410588801   -0.22158066625528
O          -1.60345730565464    1.47254198053600   -0.80303691762405
O           0.07835544355005    1.26491158024542    0.96271788061347
O          -2.15443585424221    0.49425588337232    1.34025170611553
H          -1.75469470007660   -0.09565368136452    2.07626654643345
H           0.88092169656589    1.32848649456200    0.33397302498435
O          -0.39095750091931   -1.07405795529416   -2.87907933873374
H          -1.27808003857795   -1.16925631479676   -3.23041514754870
H          -0.48484936335125   -1.05719657568506   -1.90839948545333
O           1.98949321530031    1.43411971836889   -0.68851413542332
H           2.41603754784622    2.29246873178254   -0.63519182546151
H           1.45623596487867    1.44409435047929   -1.54419467318511
O          -1.09927597412405   -1.07212396347613    3.03264404970620
H          -0.18004155605422   -1.22446616868970    2.65379008432692
H          -1.56537518326906   -1.90799683466952    2.95722045711014
O           0.35524968218703    1.51579482727234   -2.68212549874466
H          -0.44437882013165    1.70527239331441   -2.16126318892622
H           0.23521310132606    0.59289017549580   -2.98440439775435
N           1.17075180343471   -1.47156860635540    1.74547083662855
H           0.68966328627550   -1.35175041023611    0.85561391266715
H           1.70182278206476   -2.33240830513400    1.70838797430378
H           1.82360809475481   -0.70407843030590    1.83951156245055
