    23
        -45.36619459  Gyration_radius:  2.420555886 Dipole_moment: 4.779
 S           0.08183321182520    1.24483081774978   -0.10157879637753
O          -0.35641905111302    0.58368655238278   -1.33376721063473
O           0.97156687513022    2.34558470149753   -0.33815222604286
O           0.86081863313403    0.12944187363639    0.71176558982566
O          -1.05381404489548    1.57869962514203    0.75892584261546
H          -1.91245653613708    0.54440558092761    1.11366598416848
H           1.46025202647329   -0.24860501378727    0.00003714829734
O          -2.26817150371153   -1.12197819502222   -1.12149340922613
H          -1.49768209094706   -0.50356729714861   -1.27183000586738
H          -2.93679557782538   -0.86570038242814   -1.75933066354388
O           2.05628152051483   -0.60253467632340   -1.41843510999881
H           1.21893992767500   -0.32954624707491   -1.82573215588171
H           2.67827472693552    0.14012140852896   -1.57584717762620
O           3.20801977702107    1.80127187411977   -1.63189348484973
H           2.44652790161085    2.11133637494634   -1.09321680498299
H           3.22559351805631    2.36301021859134   -2.40847601666159
O          -2.46729688662588   -0.35838343464739    1.29201262622114
H          -2.53263962511218   -0.75392202659222    0.35285232516204
H          -1.77142657223908   -0.96526113897303    1.81476387945796
N          -0.59159925864211   -1.68435096160176    2.38881389896052
H          -0.48687434529272   -1.63493875603171    3.39379737914424
H           0.14615346124686   -1.12689880531556    1.95618280475850
H          -0.47908607708235   -2.64670209257248    2.09693557308424
