    23
        -45.36607942  Gyration_radius:  2.39024921102 Dipole_moment: 2.160
 S           0.13669301403656   -0.94575225492644    0.34267191225820
O           0.95278080353362   -0.73115281580061   -0.83095305246730
O          -1.03508262052713   -1.74007890307903    0.11000794818744
O          -0.25741394691884    0.41294034965076    0.93701230762260
O           0.96699284138425   -1.58768771091104    1.44675900611076
H           1.83205605398557   -1.05126977657159    1.58292649653023
H          -1.02923131931812    0.86118470433448    0.36613282186225
O          -1.14792801430570   -0.26027109750522   -2.43310975313397
H          -0.28265864105234   -0.45486112132272   -2.03117009369993
H          -1.66063496541625   -1.06798602094971   -2.34441302400098
O          -2.08935321238849    1.30052969815641   -0.49644376307726
H          -1.81709696890452    0.91164328768539   -1.36077221854588
H          -2.82792740335463    0.73026393133552   -0.19005819696768
O          -3.52692635026696   -0.77598057714150    0.37002302861301
H          -2.69149881204461   -1.27318020477271    0.27291038770837
H          -3.82446354409655   -0.92225594374688    1.26916166835328
O           3.11138255446815   -0.25010586489210    1.61894059734207
H           2.88378778713910    0.56084816619662    1.06902784485524
H           3.76363474940040   -0.74371587868077    1.11617708735633
N           2.29931180648098    1.64273388417808   -0.02024935054855
H           1.56930823086206    2.18574519587291    0.42362839484251
H           1.84108524747864    0.94016807444425   -0.59765265552222
H           2.83318270995853    2.25824086845695   -0.62055739360192
