    23
        -45.36638235  Gyration_radius:  2.37517589761 Dipole_moment: 7.409
 S          -0.68778675358002    0.95456983664675   -0.11515940380911
O           0.13186706838093    1.06949716634465   -1.28213327241263
O           0.04511332493650    0.95235601771267    1.13677451314891
O          -1.53947138409643   -0.31735760394117   -0.17330954957744
O          -1.73392303951560    2.07079376571750   -0.08995534149325
H          -2.21999063947180    1.91655645517134    0.80008279950272
H          -0.91980187670268   -1.17582689844065   -0.34277359412014
O           0.92549358468961   -1.23058676956562   -2.83353320494590
H           0.36575904235172   -0.44728266119505   -2.86770152307841
H           1.78934042306190   -0.88804744531917   -2.52068467231245
O           0.04465516455638   -2.18586610916664   -0.56532318352107
H           0.78782324889366   -1.95284505301603    0.02138499195072
H           0.36181272115349   -1.98360026230801   -1.49209691509073
O           1.88529838249582   -0.93037448495251    1.02334334017406
H           1.25972723121855   -0.17811947913778    1.12822635327142
H           2.26736973415214   -1.09619419309655    1.88681242019360
O           2.76821728383980    0.15245104922854   -1.42859061022956
H           2.02310071041508    0.76997719594641   -1.41089186640176
H           2.75168661215647   -0.28772093665311   -0.56806540231594
N          -2.58212319464875    1.33201544954129    2.20658728253974
H          -1.62545842252510    1.07677688797241    2.43040457564229
H          -3.12790571336288    0.48683830951421    2.10288634740769
H          -2.97080350845086    1.89198976304000    2.95371592551360
