    23
        -45.37890830  Gyration_radius:  2.28816004609 Dipole_moment: 2.678
 S          -0.34348577050651    0.91598683819310   -1.34664065379458
O          -1.54751792286477    0.83342294666021   -0.51433373155461
O           0.40790027778298   -0.32518018666471   -1.28923057955811
O           0.44028392014603    2.09270029600967   -1.06018845690493
O          -0.84883639832598    1.07149608624607   -2.84075961328422
H          -0.75869421904529    2.00922574763393   -2.97510690205214
H           1.36577666146856    2.01047808738596    0.40183469419304
O          -0.06117696881991   -2.07432794808089    0.68834343448197
H           0.23234531408472   -1.60145176487458   -0.11598987306848
H          -0.99539169959710   -2.27171538396543    0.49153833322042
O          -2.52992325513203   -1.65982559659875   -0.33859067057802
H          -2.77988419118560   -1.96437911552343   -1.21190529035694
H          -2.27039555869221   -0.72205154020308   -0.44325560306778
O           2.78934243126065   -0.50491569063368   -0.04108238292196
H           2.04156836366362   -0.41678154280521   -0.66153010584791
H           2.71907045074862   -1.38620263845232    0.33259466030715
O           1.74361372801225    1.62639783522609    1.21990700946166
H           2.36168112541184    0.93957717305182    0.89479579747069
H           0.51588104749868    0.84876282204900    1.72001863598966
N          -0.40358275038133    0.28700334931050    1.80017356639515
H          -0.85359996076496    0.40586191482871    2.70116607431635
H          -0.21440605031596   -0.73591463659764    1.57541233182334
H          -1.01056858445859    0.62183293782156    1.01282933532259
