    23
        -45.37514897  Gyration_radius:  2.30775446833 Dipole_moment: 4.503
 S           0.67231077284472    1.21951683814168   -0.40652277883428
O          -0.70664623944728    0.79384432012700   -0.72359415584256
O           1.62210906812382    0.50115282670561   -1.21481759433435
O           0.90838615912884    1.09903738351027    1.02885584727420
O           0.76393062166430    2.73309527200584   -0.77755604901557
H           0.20472960735364    3.15743668923934   -0.09815871643228
H           1.00042197203875   -0.60282399086079    1.43487828254256
O           1.61809820588235   -2.13229729401532   -0.97614378388704
H           1.90748589236983   -1.21521050869359   -1.16848903611643
H           0.24319997242504   -1.97694481517927   -1.44382827440211
O          -0.47216602393695    3.24608644812585    1.51840567256577
H          -0.01598747874542    2.37845406239160    1.57588219290385
H          -0.00790792864581    3.83576047742891    2.11670557231349
O           0.78863415019550   -1.55455510816203    1.45703889758261
H           1.47210057115871   -2.12339323580141    0.00287088754979
H          -0.18097832031989   -1.58514569611968    1.43078111182804
O          -1.87580397805949   -0.94565100545186    0.91312331354376
H          -2.35899407521446   -0.56942642516726    1.65002896874849
H          -1.51003343970095   -0.18437390387023    0.41198762835515
N          -0.79154903669643   -1.63211828870533   -1.66263586427465
H          -1.44607548643432   -2.04490935753102   -0.99849543952462
H          -1.07004574377525   -1.81058955198968   -2.62103853300685
H          -0.76521927218260   -0.58694514603674   -1.44927813951855
