    23
        -45.35660213  Gyration_radius:  2.43868865642 Dipole_moment: 4.299
 S          -0.26862206913800    0.49957647210644    0.20108191879401
O           0.09952911075996    1.25225009352925    1.36010268731961
O          -1.65808623304393    0.45502234663825   -0.13666524346151
O           0.25492589313901   -0.94457745035087    0.29079490423455
O           0.53723144976089    1.09526085879169   -0.98108508053923
H           0.27230485536556    0.66248421320582   -1.85772140198558
H           1.27458483370773   -0.90239264712511    0.27799376092417
O           2.67494879947862    1.34684861995553    2.01399103657544
H           1.72587585463994    1.48560162104572    1.81934544126839
H           2.72890660579402    1.13760659067858    2.94879054994469
O          -0.20178339227639   -0.00336815153024   -3.17130023394785
H          -0.54901631675729    0.65444828665708   -3.77833434770581
H          -0.96386256019803   -0.56789781624913   -2.89788357701555
O           2.75449713645563   -0.54234375503773    0.18113769309863
H           2.88591452599532    0.12684344768718    0.90009201522763
H           2.86943225384154   -0.06715775630763   -0.64615443071061
O          -2.33117803299972   -1.16934697270451   -2.11896602943034
H          -3.26275405089529   -1.06092501746499   -2.31966961052372
H          -2.16537826705634   -0.66854320811089   -1.29403984651059
N          -1.74384831487132   -0.80091780706237    2.56041449619735
H          -2.54781575690062   -0.55527211771690    1.99529750940677
H          -1.20588349176371   -1.47048709138145    2.02367585754718
H          -1.17992282302528    0.03728725073716    2.62910194130345
