    23
        -45.36197584  Gyration_radius:  2.36592909397 Dipole_moment: 5.675
 S           0.09143433028527   -1.84208985385717    0.14146625518641
O           0.76980887532005   -2.74381705919035    1.00059516330993
O           0.94026638269581   -0.86980941266016   -0.53930148496020
O          -1.00254630118892   -1.10281699901835    0.89518684795435
O          -0.65058982535621   -2.65074443582557   -0.95142324383100
H          -1.12093639510215   -2.02227863275399   -1.56159317704479
H          -1.17890325735719   -0.08726759116527    0.61668234577710
O           0.10858704570290    1.03333644487988   -2.07714394930292
H           0.52229702886744    0.32620251718721   -1.51999507025276
H           0.82641995772433    1.48429401378372   -2.52437241924327
O          -1.30355613065830    1.29016925061647    0.30456525561491
H          -0.67562422873071    1.68308192001943    0.99008032764066
H          -0.89205741207143    1.41747533642220   -0.56450738996060
O           1.97219417268802   -0.36238527183040    1.92235796266110
H           1.77243828107832   -1.24196128730423    2.25677678531827
H           1.86141990839896   -0.44532755638746    0.96537414190179
O          -1.71363218563773   -0.92170264825521   -2.60129955832269
H          -1.17728986279565   -0.11026002028442   -2.52474101426445
H          -1.64391835364666   -1.22355045646686   -3.50943511186762
N           0.43404867201688    2.07892253803284    2.12036989667249
H           1.04330561719217    2.87238882800796    1.96576249770797
H           1.01921283500262    1.24230825020748    2.16847766813206
H          -0.00237914309669    2.19583215461744    3.02611728859520
