    23
        -45.36487478  Gyration_radius:  2.30484222716 Dipole_moment: 2.588
 S          -0.36438500449573    0.57235312719561    1.22835387541827
O           0.55704316585793    1.01488371389849    0.18467843196097
O           0.14480534586074   -0.56529425131002    1.95300221132272
O          -1.68770251027991    0.29320915281272    0.62903924134194
O          -0.55834135600962    1.74044547183703    2.23560958155883
H          -1.08411974494583    2.39444602721666    1.72961672601166
H          -1.59841668087865   -0.80854505704233   -0.39594327293372
O           0.53954859892539   -2.47343935088312    0.22618699647368
H           0.36772960559076   -1.93949958106092    1.04193497505693
H           1.39040111444521   -2.07955295724337   -0.11179284361707
O           0.12531182099679    0.31469682337704   -2.29042169276059
H           0.27491775293801    0.73607965557999   -1.40669609412977
H           0.99290074403917    0.10109619269742   -2.63846036743825
O          -1.26846203164247   -1.47034335544867   -1.11052063456771
H          -0.46879529598588   -2.03727618027018   -0.56283549404148
H          -0.78028403826518   -0.85972030919768   -1.75997923437068
O          -2.27268334773942    2.85643037759884    0.57424163673410
H          -2.25097991054066    1.90260990039034    0.36178202770508
H          -3.15124788154595    3.04300220494411    0.91311862353975
N           2.62155733454131   -0.90962772851327   -0.26959121885333
H           3.20168601281390   -1.07241087755640    0.54471913404107
H           2.02988717461386   -0.10534943145449   -0.04782190667606
H           3.23962913171617   -0.64819355760752   -1.02822070165827
