    23
        -45.36655222  Gyration_radius:  2.28257164128 Dipole_moment: 2.503
 S          -0.00335618971569   -1.28651937650812   -1.14084209841634
O           0.91509926133388   -1.20767744451614   -0.02074001349220
O          -0.30078963700670    0.01722267512482   -1.70554511679887
O          -1.21834345373303   -2.02714802605459   -0.80829858415187
O           0.71676917547016   -2.13374468563972   -2.25963780496544
H          -0.01629095564031   -2.39944429947301   -2.80519965065734
H          -1.86945252990924   -1.55498052789307    0.44530110568698
O           0.10770884832531   -1.34848225491318    2.51135044194701
H           0.45554089290777   -0.50278951403731    2.81438537100861
H           0.55259033121332   -1.51743740170613    1.65479939788142
O           1.01229942972246    1.21139924120541    1.19398169674464
H           1.16286808162096    0.34509898585838    0.77255173137142
H           1.33415959685806    1.84429190088686    0.51730325261889
O          -2.11181150612657   -1.02652957656951    1.30017787474490
H          -1.95754019314015   -0.00019220197921    0.96189048097378
H          -1.33070445914094   -1.21034836283120    1.93911446446203
O          -1.46746900710713    1.17118237843765    0.36961405165697
H          -0.59833098813077    1.35532433088895    0.82464157076002
H          -1.19426532990588    0.87705879891825   -0.52700798980149
N           1.47509130283702    2.33853078574948   -1.23225957806360
H           2.38396323169256    2.28209975023414   -1.67490028050822
H           1.04112728133949    3.20188950159977   -1.53526383917531
H           0.91113680623503    1.57119532321553   -1.59541653383309
