    23
        -45.36655227  Gyration_radius:  2.28260055636 Dipole_moment: 2.508
 S           1.20528360538280   -0.51269987487293   -1.11444919718086
O           0.27043047359400    0.46150799372052   -1.64744542182115
O           0.59232304134419   -1.38868573360667   -0.13396759601521
O           2.42143852808852    0.11909921563041   -0.60732803803637
O           1.67010516271715   -1.42735431007845   -2.31260776643596
H           2.30466963381845   -0.86879207100918   -2.74979332103148
H           2.23613508675209    0.77014123307606    0.71935505563908
O           0.91249802370273   -1.05803127414481    2.48724644363863
H          -0.01543680287385   -0.96641663244531    2.72920074345131
H           0.90628746762476   -1.42583085768131    1.57902762322543
O          -0.31425108105452    1.80331195365794    0.55649313988626
H          -0.12380824845037    1.52416455081841   -0.36592659460594
H          -0.94085808717940    1.09877116635578    0.88410236556655
O           1.83108739976384    1.14514965593833    1.59354227371602
H           0.89431935240249    1.56715677106375    1.22504921260416
H           1.55163506335712    0.30990435779701    2.11942713429090
O          -1.64446527862892   -0.39653949003498    1.02747394374990
H          -2.29740358824677   -0.27680144252757    0.30541621969160
H          -0.93638715825749   -0.91213944566577    0.59899275842508
N          -2.65542826973762    0.05248733740623   -1.45200006991051
H          -1.68322176551174    0.19122347060498   -1.72459758289424
H          -3.16159032780304    0.89364706720069   -1.70070527267656
H          -3.02336221079679   -0.70327364120345   -2.01650607327548
