    23
        -45.36427710  Gyration_radius:  2.28837397859 Dipole_moment: 3.484
 S           1.04643644918062    0.30613442826659    1.15579377254407
O           1.68023147282462   -0.63726823023233    2.02275343400695
O          -0.39312179713816    0.36140816740674    1.26114481991032
O           1.40434359720261   -0.03658321951000   -0.32759350622367
O           1.64064443410005    1.69065204990830    1.31341833943930
H           0.95742870627034    2.34369673910718    0.86573153225925
H           1.02791958547157   -0.94279315053144   -0.54243779070909
O           0.39339780294387   -2.39249297990017   -0.63182362793173
H           1.08365304342914   -3.05224731794908   -0.73011491014695
H           0.02800512974027   -2.50856490448966    0.28631073209615
O          -0.18843653627714    2.97026834021953    0.19785678138717
H          -0.89599225592695    2.44098759409283    0.58227179423017
H          -0.11417037047582    2.67360670622592   -0.75595876324175
O          -0.34721773631416   -2.36936444601941    1.88881677940559
H          -1.00433353709371   -1.66918407038203    1.95915643230257
H           0.48013819350555   -1.94810191631682    2.18485306502297
O           0.04226277520924    1.78235374570573   -2.11543156880188
H           0.86806791482195    1.31091943127061   -1.97072380449704
H          -0.66605426953534    1.10212999608453   -1.98957047519948
N          -1.65379682369924   -0.15688503169905   -1.32039193995645
H          -1.30157540462006   -1.06947569942059   -1.58430204363411
H          -2.66143167304719   -0.17434374786441   -1.41236385405065
H          -1.42639866053509   -0.02485247377786   -0.33739518818777
