    23
        -45.35695567  Gyration_radius:  2.35915155342 Dipole_moment: 1.374
 S           0.78275257211673    1.32175851859243   -0.60845859711606
O           1.38332465211169    2.34071753856198   -1.40287063860454
O           0.08578817115666    0.30178563444325   -1.36625101790487
O          -0.25844345798845    1.95084366486246    0.38515380776821
O           1.79029344958832    0.68627328966907    0.31666735115109
H           1.36384169455728    0.23708647800933    1.21877397689794
H          -0.87905208516295    2.41385902024806   -0.21277765334302
O          -1.26765563092659    2.69919396264268   -1.92434760993783
H          -1.26439431386568    1.80332843795747   -2.27863764508395
H          -0.39780995820400    3.05995434629449   -2.14110364487396
O           0.91289202674535   -0.40410826184826    2.34080910215081
H           1.67583817678720   -0.66171619971695    2.86419283815378
H           0.48108615356331   -1.27998082962277    1.98836882184410
O           1.40815949317074   -2.02076173417564   -0.90508242807665
H           2.29519879856551   -1.68816425028637   -0.75562777753609
H           0.88566733867031   -1.25636358564714   -1.20572041896115
O          -0.09878577570928   -2.47496813051632    1.30397653445895
H           0.45268365848915   -2.54805611101743    0.49923963220213
H          -0.94173754271715   -2.06518562155141    0.99287556000889
N          -1.99913803285249   -0.83048905150293    0.33873215142750
H          -1.38262527899475   -0.46188939803994   -0.38200641073459
H          -2.13232102935203   -0.09360527080514    1.02059467237578
H          -2.89556308981475   -1.02951243654369   -0.08650059610070
