    23
        -45.35038214  Gyration_radius:  2.52005981406 Dipole_moment: 5.920
 S           1.56101554843389    0.79530336186730   -0.16536494780509
O           0.80988893548267    1.19734787927136   -1.32056419553336
O           1.99863336428228   -0.56567637787232   -0.14554980982244
O           0.72628421413371    1.09941358317145    1.09523383051817
O           2.78570493560717    1.71682844190820    0.02241128644365
H           2.40102696888730    2.61275359528102    0.16479088933911
H          -0.15387293800893    0.43246022805966    1.14582716187292
O           1.31814725036934    3.72720120043044    0.81585688053525
H           1.62041188020749    4.17460969635003    1.61055409404818
H           0.75812278310441    2.98800014330641    1.09727731116081
O          -1.66232145308918    0.26854776650660   -1.44140201754205
H          -2.23226703165475    0.96273906822616   -1.77704137322890
H          -0.74130936210599    0.58900286313877   -1.54939669267644
O          -1.20240693858800   -0.42523268839123    1.06878450226801
H          -0.76028072831071   -1.30832747506032    1.00673946889961
H          -1.56157537971079   -0.24003013918909    0.16611919431101
O           0.39144106383484   -2.50545439037287    0.70586207101488
H           1.05477951872528   -1.91451668854476    0.29440841999285
H           0.85036641978128   -2.99161897697504    1.39316725322586
N          -2.06766090896037   -2.84894632513361   -1.23357634683691
H          -2.74602556062358   -2.75810965911453   -0.48640942342765
H          -1.97132185886391   -1.93630357547499   -1.66398519957578
H          -1.17678073293261   -3.06999152137745   -0.80374235712892
