    23
        -45.36596491  Gyration_radius:  2.40375528448 Dipole_moment: 1.820
 S           0.32443770245115    0.68276656243066    1.38449796948501
O           1.71637663811626    0.96284917957675    1.17013102464868
O          -0.03731738795140   -0.70463383882479    1.22277268842787
O          -0.54622834595743    1.53767915279190    0.45094144374709
O          -0.10456658452874    1.16921191858904    2.77046197051904
H          -1.08348497989850    0.85233764173669    2.82968439439873
H          -0.27549533301590    1.44623597121786   -0.56037760384412
O          -0.94066950997610   -1.13520476105319   -2.53270559294985
H          -0.81244094172874   -1.51253167348927   -3.40433454894893
H          -0.32270197534890   -1.61681639076700   -1.92776537384000
O           0.16687554322260    1.19599636197351   -1.92463143811997
H           1.08748088912625    0.88485827922137   -1.83078946948009
H          -0.35343438282895    0.40660822392121   -2.21648284723745
O           2.59470271556063    0.17627216642022   -1.18167751996364
H           2.37265498839287    0.45011815868407   -0.26290554112143
H           3.47264237238149    0.51847124570039   -1.35954916348566
O           0.92232761446984   -2.08520182376178   -0.90432687282569
H           0.57084976631052   -1.75659942256737   -0.05784578238453
H           1.67877868430908   -1.51543920264070   -1.10016918634776
N          -2.42851917159412    0.15336372825090    2.47632034648254
H          -3.02912171885244   -0.26445365330015    3.17473442598929
H          -1.98768746207665   -0.57658422928754    1.92377444910507
H          -2.98545911978146    0.73069641618774    1.86024219773028
