    23
        -45.36012521  Gyration_radius:  2.32026306867 Dipole_moment: 4.099
 S           0.59359013787327   -0.46098539431459    1.39076394294611
O           0.97391670992864   -0.93691784474238    0.07700718712688
O           0.32342391884308   -1.49340233020646    2.33794224608126
O          -0.67759704438459    0.42992105742129    1.22683880480721
O           1.63784051904749    0.50673690727555    1.90839202041233
H           1.70856669295695    1.33505009827554    1.26710242495446
H          -1.46125365116545   -0.17433767026322    1.44026220996650
O          -2.30411657064314   -1.47659857393027    1.65797336413248
H          -2.20563350463905   -1.85587303883959    0.76573579081369
H          -1.61436174012678   -1.88156482139742    2.20427215136119
O          -1.25569430834854   -2.03661397155261   -0.80112150013443
H          -0.37660581005510   -1.68339841602679   -0.53897263277479
H          -1.09196848598463   -2.85057818819064   -1.28092725360786
O           1.86003302482383    2.42165074079091    0.31686170660609
H           2.79441900802489    2.63190188427803    0.25284368293023
H           1.58217125602212    2.01689650494421   -0.58590086738129
O          -1.63925744709803    0.74497605996680   -1.49962127334685
H          -1.72073465666472   -0.21650831218358   -1.46026483183860
H          -1.52101396582659    1.02914679505224   -0.58717860778097
N           1.19760723531985    1.18182188260469   -1.85652443284880
H           0.19196322249727    1.26948763132805   -2.00378007456669
H           1.34543158659631    0.24971043498567   -1.47757149664048
H           1.65927386298823    1.24947858474942   -2.75413254121977
