    23
        -45.37292297  Gyration_radius:  2.32120762875 Dipole_moment: 4.916
 S           1.00312337655429    0.68897771965172    0.65059925410881
O           1.00991217316290    0.41861619448674   -0.78953915729117
O           1.98808695454896   -0.07625497305588    1.36549431111805
O          -0.43257330932392    0.28674934732139    1.15612585175119
O           1.04377957459894    2.12936940936655    0.91857664046595
H          -0.26161001616652    2.54354430352315    0.63544442890031
H          -0.56644626276528   -0.71837224850743    1.04215509268523
O           1.89397874481896   -2.67292101148208    0.99845080947791
H           2.03638456161752   -1.70136805753089    1.08300440278562
H           2.29983792876291   -3.06138024173592    1.77511266546761
O          -1.12421802552884    1.39810929619867   -1.91026516020186
H          -0.22469540958340    1.10918284240543   -1.61275684339245
H          -1.57843105205487    0.57909590458356   -2.12760871131326
O          -0.23790231965634   -1.63980132699917   -1.88427606585935
H           0.38247356807578   -2.26474784231426   -2.26307346852459
H           0.31097127803912   -0.90708058850263   -1.52487277040757
O          -0.71609655565880   -2.19983051970262    0.70761897722792
H           0.18408918479533   -2.54687951732399    0.89470315566979
H          -0.75999582519606   -2.15303548452246   -0.26898169653317
N          -1.34079137360874    2.69723557877229    0.36176063264848
H          -1.59920187210681    3.67833100346615    0.34463211326942
H          -1.88397677114309    2.17152535604845    1.04184074081068
H          -1.42669856218925    2.24093485586200   -0.59414524286106
