    23
        -45.36096014  Gyration_radius:  2.42504825141 Dipole_moment: 2.682
 S           0.62130640949320    0.95548617524769    1.03027159548714
O           0.28991633347240    0.95030810493099    2.41689382566733
O          -0.46885814841981    1.31822906853012    0.14955582341352
O           1.11939168819510   -0.45613698783794    0.59002428358339
O           1.83513543394616    1.83382850561669    0.78664386537030
H           2.18798805091003    1.70552012488631   -0.18024931622333
H           0.30114141117621   -0.98092183149892    0.38455331415741
O          -0.54669583057091   -1.65654616225607   -2.41946340014089
H          -0.85436582885904   -1.72229699545711   -1.50257595171724
H          -1.27720422541967   -1.92678646594930   -2.97838734884899
O          -1.32649099394970   -1.24515142054958    0.21249611875741
H          -1.45911739661749   -0.29297782516360    0.08370528845020
H          -1.53654056919710   -1.40400385670702    1.17610118160809
O           2.58008759404861    1.56493995551704   -1.60282232950913
H           2.79973332680819    2.42780353355320   -1.96194957765252
H           1.72103663129550    1.28462141175906   -2.04324030196616
O           0.20690055270973    0.98161578542155   -2.43890182636938
H          -0.19277562846892    1.20764052259790   -1.57955907838855
H           0.04258432337610    0.02732716445472   -2.56245710989570
N          -1.55314387404429   -1.22296347776815    2.84809042034536
H          -1.14471444077885   -1.97006160679591    3.39594219529594
H          -2.42314941690091   -0.95743091834259    3.29294511404818
H          -0.92216542222918   -0.42204280418334    2.90238323453082
