    23
        -45.37605353  Gyration_radius:  2.36740943238 Dipole_moment: 6.087
 S           0.59590126591035    1.09365572865092    0.58422764651357
O           0.28521786698327    1.45117133346412   -0.77990984315302
O           1.58032369542942    0.02956092062732    0.67355584367576
O          -0.63379410281677    0.70848653694449    1.31755013763390
O           1.16403839899585    2.36088335643417    1.29324445423555
H           1.18444770745320    2.10526860265464    2.23611991686505
H          -1.30226497247154   -0.35946097610748    0.41302701905814
O           0.47083578164210    1.30639491355200    3.62746505692668
H          -0.07251636171640    0.90763035395775    2.91821121986808
H          -0.11620003424623    1.86660333835357    4.14022857068784
O           1.01091501462269   -0.45568332770600   -2.63883545385224
H           1.17352817785965   -1.23492307570239   -2.09475563278808
H           1.05320021572949    0.29925652169079   -2.02799046690062
O           0.88385884223161   -2.21115575943236   -0.36693629170798
H           1.34203998463147   -2.92217333867506    0.08347895776061
H           1.22301348999626   -1.36532596251789    0.04479608481694
O          -1.53276117565889    0.33647987482877   -2.49376842163877
H          -1.18323116315791    1.11886861392695   -2.03782028135064
H          -0.72441174411032   -0.04744080687911   -2.89830430826999
N          -1.56707914320278   -1.09470109590525   -0.31174807530260
H          -0.74915446278449   -1.73706567756670   -0.37812149315914
H          -1.67058541300218   -0.56874025734403   -1.24939446322071
H          -2.41532185828524   -1.58758979724396   -0.05432017670144
