    23
        -45.35447716  Gyration_radius:  2.47245153114 Dipole_moment: 3.792
 S           0.44080401932153   -0.82014522293719    1.04685169208174
O           0.05985926008721   -1.20273846544314   -0.28642430560753
O          -0.57293777403491   -0.19571960777087    1.82776355579312
O           1.69605434638455    0.08142033218602    0.94230219035172
O           0.97427310686819   -2.04698121894904    1.82546367559090
H           1.80946251783455   -2.31429553559311    1.37537364540727
H           1.60337429150673    0.57256469438987    0.00024105872248
O          -0.49575442440231    2.84590075761515   -0.82712714359977
H          -1.24037808614038    2.36539937497171   -0.36347252636499
H          -0.24071974188776    3.56203452244718   -0.24395283325680
O           1.28167866284398    1.02136927368433   -1.30034681783540
H           0.74978029962589    0.25497011723676   -1.55510628637004
H           0.63448094297880    1.78165432994919   -1.18837597182830
O          -2.29340675421516    1.47477713892279    0.47174918667299
H          -1.78287412613176    0.96779853080326    1.12216398898508
H          -2.61815751093027    0.79944292570685   -0.16348060903833
O           3.31830192995433   -2.11153012987974    0.66023453496660
H           3.16108087254920   -1.15958944233922    0.57736448958250
H           4.06853338039842   -2.22836981534128    1.24874130905282
N          -2.68973885828369   -0.66663440551733   -1.18058135202025
H          -1.76055576564125   -1.00059836010926   -0.93346921796529
H          -2.74650490681212   -0.62097766336116   -2.19025693752648
H          -3.35665569189155   -1.35975214068542   -0.86565533578489
