    23
        -45.36599731  Gyration_radius:  2.38988097365 Dipole_moment: 5.597
 S           0.91693864931820   -0.39144181492501    0.37296051549897
O          -0.45981545474810    0.14300873973644    0.31140951162664
O           1.44564036929371   -0.37013690282599    1.70740994412489
O           1.76497882456451    0.55362198927107   -0.54854407422720
O           0.97711188511666   -1.70401745652247   -0.26405403778445
H           0.12319359428712   -1.97607630017119   -1.36776520582373
H           1.56710971988306    1.45393681136258   -0.16836445383825
O           0.74752412179769    2.57979090631048    0.66124610556831
H          -0.01164065918485    1.98947152241103    0.76593194446707
H           1.20490479084554    2.58863819551517    1.52710609543110
O          -0.65586885551309   -1.98551685861680   -2.08819262352314
H          -0.62990173545639   -1.02716449660317   -2.42062921096404
H          -1.51592737292453   -1.99540740658524   -1.42607327601156
O           1.93977583789658    1.90452629912471    2.96916406335838
H           1.61957072116938    1.82518861855385    3.86897817330202
H           1.87800898720776    1.00665976572956    2.57829562924119
O          -0.50394838618159    0.55365170422717   -2.28651020065598
H           0.37467961624579    0.89666451606639   -2.47240483019448
H          -0.57926798375113    0.55642356511269   -1.30383169561148
N          -2.43501186068015   -1.73531747129037   -0.32335119081120
H          -3.34200640617616   -1.34793718765918   -0.54852821132684
H          -1.86926480627511   -1.01240671791242    0.13570049132064
H          -2.55678357674677   -2.50616002028218    0.32004651682164
