    23
        -45.38014078  Gyration_radius:  2.28483060416 Dipole_moment: 4.859
 S          -0.99346960547699    1.40701329029309   -0.75085007477119
O          -0.33200600700842    2.26021471542386    0.22009372247424
O          -1.75933872550596    0.34388519549984   -0.10783209505698
O          -0.08364045978232    0.91640430072945   -1.76668420061869
O          -2.06481278545304    2.29766999767983   -1.49946591531856
H          -1.51802939858836    2.89705647347865   -1.99684642435911
H           1.37856846484294    0.25370886488652   -1.10471542241355
O           2.06569365452741   -0.18966146805575   -0.57140426528442
H           1.45395943573626   -1.78493077435381   -0.31514533771492
H           2.11587966417802    0.30486601850700    0.25611098740119
O           0.77756261350553   -2.45443702843985   -0.05718899323077
H           0.13502890058161   -1.70131317787228    1.04129909821047
H           0.09691384777558   -2.39346935178881   -0.76789731345448
O          -1.07044419888801   -1.63535829036028   -1.80461610800341
H          -0.54342441308845   -1.01070613549105   -2.31833897598642
H          -1.57683452632372   -1.05679809015286   -1.21026354655311
O           1.34210495523934    1.15361919565601    1.83880484152758
H           1.71081226660693    1.81657527714899    2.42422663637819
H           0.72113479705769    1.63783006908058    1.22952970294545
N          -0.35349572097793   -0.95998515545858    1.69723977208699
H           0.35513483446781   -0.27182565108976    2.00816917801224
H          -0.83064083592872   -1.39100029973229    2.48074687155961
H          -1.02665673750064   -0.43935797558832    1.07502785216676
