    23
        -45.36607919  Gyration_radius:  2.38973558998 Dipole_moment: 2.145
 S          -0.64315332362502   -0.14424422260816    0.77152045371925
O          -0.10866971220329    0.40900039995800    1.98241716639148
O          -0.05670501308807   -1.40732883881834    0.38416873361362
O          -0.48544742732739    0.85792750542718   -0.37978420639822
O          -2.15331889230927   -0.28961770373408    0.90984182502367
H          -2.53283829307273   -0.74052321775138    0.06883257303095
H           0.50749374180393    1.22590778035152   -0.42221309284106
O           1.25577631764996    2.72006216728853    2.05006130331226
H           0.63865434221287    3.43973577845321    2.19056350216523
H           0.75161642112343    1.89487461759524    2.18898552154050
O          -2.95780697577880   -1.50207064028045   -1.16374720851902
H          -3.03128839589012   -2.42456529152566   -0.90789192802584
H          -2.14918158353427   -1.43650453320119   -1.75813175260766
O           1.87709412155922    1.63926513771497   -0.31042904036202
H           1.82793292932304    2.23768947077677    0.46701601225342
H           2.30495543229057    0.81969262429952    0.03272555356773
O           2.44732542304437   -0.62950225700533    0.95466244972332
H           2.38377562049405   -0.39513085446721    1.88421354818451
H           1.62176900611459   -1.10269328891423    0.74789731672661
N          -0.64036837394867   -1.34109450678137   -2.40259496085767
H          -0.16321104968790   -1.51461678042118   -1.51999230457583
H          -0.45793595225979   -0.37791702768362   -2.65530788346511
H          -0.23646837287695   -1.93834632867053   -3.11281359158235
