    23
        -45.36022668  Gyration_radius:  2.36097876552 Dipole_moment: 2.386
 S           0.87673644330580    1.61364680455180   -0.63996866727735
O          -0.56359362790752    1.47324540198096   -0.51749426054658
O           1.45839540479281    0.93157613721479   -1.76558216636292
O           1.55003430548931    1.28320180953411    0.62256062260434
O           1.14011988591968    3.16088220437457   -0.86948882934492
H           2.00150247248166    3.13585564726059   -1.27200313386183
H           0.97844616206592    0.50178915700698    1.65030621363816
O           0.77934289534504   -1.61362362709650   -1.24720038912693
H          -0.17983190237271   -1.54291433306558   -1.45981338639736
H           1.14670454949441   -0.73971274648748   -1.47817879878155
O           0.47494523823800   -0.14592311838593    2.32152306249201
H           0.66585106743548   -1.10536711575359    1.92139999623441
H          -0.50883710449743    0.06202383803344    2.15418805509478
O           0.98514016195964   -2.32177591009390    1.20294142241652
H           0.88559293341471   -2.08277564042803    0.22136116820351
H           1.90059524054464   -2.58402347586710    1.31654923782368
O          -1.83989977151119    0.62667820367482    1.57860839102182
H          -1.44086377870943    0.95883616588404    0.73319171993590
H          -2.20045504856065    1.39534545793376    2.02448288210614
N          -1.81531766626073   -0.92340676140880   -1.62505294029680
H          -2.27524376952419   -0.92280932135185   -2.52615874793384
H          -1.52303142725105    0.02969656474557   -1.42077796049747
H          -2.49633267390906   -1.19044535221551   -0.92539349115335
