    23
        -45.38013973  Gyration_radius:  2.28479523499 Dipole_moment: 4.901
 S           1.71062915243743   -0.56209192047534   -0.53518686255677
O           0.91789507214968    0.14055706241437   -1.53910524595795
O           1.22945791795716   -1.91417176718734   -0.31363566426175
O           1.85168874484266    0.18340127036138    0.69948702312078
O           3.15934926690839   -0.68223381048770   -1.15818175752126
H           3.65859804614187   -1.05816872772203   -0.44058260112412
H           0.45422974427297    0.08169782700997    1.72561520804948
O          -1.20481146018044   -2.19348443562415    0.48859389729565
H          -1.40285725716749   -3.12447155719302    0.59890572975332
H          -0.25356116929072   -2.14590567153504    0.19820637927180
O           0.81325633323840    2.51915061942233   -0.27264228188574
H           1.35135417116591    2.15806689953501    0.44292318523591
H           0.88219415376328    1.83834602652398   -0.96257503198557
O          -0.44190960265680    0.02604916746584    2.10890796932750
H          -0.79614785954722   -0.82589889130255    1.82502840605060
H          -1.30165294071526    1.33900224533015    1.38638957010996
O          -1.62003924195253    1.89827270344847    0.63927184026135
H          -0.80846532591572    2.36051860270764    0.32300898279823
H          -1.77632826831971    0.83519322559253   -0.37603533888145
N          -1.66776086699908   -0.01892974366823   -1.06707783315635
H          -2.31740101334232    0.02607716577261   -1.84377592003327
H          -1.77013217012934   -0.89798263923743   -0.52918249637711
H          -0.66758543664314    0.01700634885964   -1.39835717750484
