    23
        -45.36642806  Gyration_radius:  2.32297335145 Dipole_moment: 3.557
 S          -0.41320872366582    0.15904020151913    1.28466737058582
O           0.05206884481109    1.13195738422415    0.31981401933245
O           0.63595940634698   -0.56932195389152    1.93750076401165
O          -1.38153186646980   -0.79771680716748    0.58200241727847
O          -1.30177625324350    0.84428451288957    2.32061539617517
H          -1.96988682424280    1.36539242919165    1.73482203187974
H          -0.89769902194966   -1.34590836656443   -0.19731471784753
O           0.42378777026679    0.39916343123925   -2.29887171036667
H           1.39289897340764    0.43867225330891   -2.22038961712127
H           0.12362457080062    0.84330909814277   -1.48967011135784
O          -0.11611215996886   -1.93663377005976   -1.22798559843971
H           0.73654100075058   -2.15062630133804   -0.80038679476821
H           0.06079355723465   -1.15111554212942   -1.81393348952193
O           2.09729353843783   -2.07917220971807    0.34496012364884
H           2.48441766338640   -2.83151679878843    0.79584730727272
H           1.62526918479428   -1.55440955690954    1.02872960808720
O           2.67187095883753    0.47695647373002   -0.75992115143086
H           2.76403017960617   -0.42950421788096   -0.44011535806697
H           2.01307220909433    0.89183112607923   -0.18907071035006
N          -2.68515876594500    1.99472730487641    0.50749327402333
H          -3.23985888787872    1.28734802981637    0.04328970849291
H          -1.85153509844547    2.16621840341185   -0.04426664387805
H          -3.22486026589952    2.84702487603276    0.58218387242221
