    23
        -45.38101015  Gyration_radius:  2.35719028264 Dipole_moment: 2.417
 S          -0.90828737718993   -0.97532443836891   -0.14878447701015
O          -0.31793978155882   -0.60514624233412   -1.43656496859977
O          -1.38344762779700    0.19791273887195    0.57033040806192
O           0.02645584695685   -1.75073033433545    0.65520632459284
O          -2.16032891422800   -1.85849673680304   -0.43952478749020
H          -1.82291739771648   -2.52135443991248   -1.07490277002929
H          -0.74682531194255    0.95585818335430    2.06512182252551
O          -0.51245664266067    2.59297086551721   -0.15523123917280
H          -1.07290440643313    2.99063950312163   -0.82274152666691
H          -0.91354799284651    1.71729361926718    0.04830425803346
O          -0.79971720968649   -2.99673395150880   -2.40021056182272
H          -0.39552365147905   -2.12452570801362   -2.21533089392811
H          -1.17075216686515   -2.94403995122224   -3.28400355490038
O           1.64092153166578    1.13076294979997   -0.94088380726909
H           1.05629980313676    1.88598665818680   -0.73978764221423
H           1.02616729393152    0.45507230009806   -1.29766433557955
O          -0.10149509938266    1.50449345853884    2.55192829750073
H          -0.12089028108988    2.35418543805526    2.09831748115457
H           1.20016726605023    0.62907338778054    2.03328220827893
N           1.77312188550107   -0.00291604706608    1.41582444571687
H           1.92164764351334    0.49307576434784    0.48159000670305
H           1.14179148603358   -0.83336294756978    1.18411895008293
H           2.64046112409659   -0.29469408974693    1.85160635196173
