    23
        -45.36645120  Gyration_radius:  2.28368741085 Dipole_moment: 1.846
 S          -1.45688125198665   -0.53548851836171    0.74340485913297
O          -1.50693068581842    0.80884334317653    0.21099667325254
O          -0.12601439872397   -0.87838788526860    1.22360945197853
O          -1.96049892976487   -1.54217809965183   -0.19056663648857
O          -2.44215545941030   -0.60490245908433    1.97464563707054
H          -2.99727669307883   -1.33587892144185    1.72420793376802
H          -1.01180065033101   -1.80965420387824   -1.31742186988833
O           0.16493655045343    0.63971009138134   -1.83234342105834
H           0.96137004184941    0.70646874546165   -1.23205304689325
H          -0.58133737511191    0.86734220642957   -1.23621343046738
O          -0.20263413766370   -1.80004015239917   -1.95689694367814
H           0.57278451388899   -2.14887455082895   -1.38204699284803
H          -0.01404814372051   -0.72482692278144   -2.05444793037108
O           1.57099008548642   -2.33128056471403   -0.20775007554148
H           2.29997294001867   -1.70365396009358   -0.25703463752116
H           0.97906639217881   -1.98257841700075    0.49282463152853
O           1.84369723230517    0.64707291430939    0.16416189555608
H           1.66480334944356    1.56830114645487    0.45064187859163
H           1.21697141566458    0.12555246342193    0.69990330477433
N           0.48975620632666    2.86923812213911    0.93601823895359
H          -0.34156097318993    2.29966189331802    0.78406799757722
H           0.39854983494429    3.69657777798281    0.35921849164597
H           0.47824012624122    3.16897595142906    1.90307399092592
