    23
        -45.37189113  Gyration_radius:  2.38857365473 Dipole_moment: 5.355
 S           0.68706918021462    1.13460185714420   -0.26387354336120
O           1.03139958667437   -0.30067607815484   -0.14125127162955
O           1.01092880933646    1.85067906875322    0.93840006362996
O          -0.73260275966416    1.24881339215831   -0.64264916953474
O           1.52978302497075    1.70796934802578   -1.43153185026555
H           1.02034330670387    1.50162176122102   -2.26464686630564
H          -1.44984946068008    0.03746589936372    0.04359012524122
O          -0.14883599198405    0.95524428621698   -3.25487672438268
H          -0.03120261014244   -0.01260265369607   -3.17792740526465
H          -0.78182252109512    1.19032849365193   -2.56005337919837
O           1.24100927418376   -0.04236838609198    2.74868613239000
H           1.21560292452158    0.76786734340148    2.19077459849825
H           1.68735198237191   -0.69109790440559    2.19901540651481
O           0.43825232531977   -1.54220135294688   -2.37670794174897
H           0.73709330707160   -1.11213046974291   -1.54175641768680
H           1.21911229641000   -1.93919193199892   -2.76591431325273
O          -1.32806434996473   -0.43135183547867    3.12377183190338
H          -1.65873068765025    0.41718641502133    3.42446326041479
H          -0.33710877950448   -0.34314160486371    3.12154188355848
N          -1.40300601184538   -0.90676448450452    0.53990880997769
H          -0.39236948048647   -1.10949849653967    0.36799756572899
H          -2.01667290075954   -1.60672936957161    0.13661697913355
H          -1.53768043400893   -0.77402329695432    1.58642220564151
