    23
        -45.37066150  Gyration_radius:  2.24800692106 Dipole_moment: 3.981
 S           0.67564276112765    0.66613462426173    0.77956924252458
O           2.11186822383045    0.68254544177085    0.84014856978767
O          -0.00696135908894    0.75218122000018    2.06705769316372
O           0.25045151664530   -0.78438668971530    0.23566558524553
O           0.09839889704291    1.59425250766013   -0.18889965327572
H          -1.48791385732177    1.42531199489112    0.11808124289646
H           0.66880505768307   -1.39173830331479    0.87731119859250
O          -0.33137331274735    0.19650014984986   -2.45428107147229
H           0.52347561334482   -0.26112458963139   -2.47885176057678
H          -0.18884374300420    0.86909382689819   -1.76510527458063
O          -2.16231381583567   -1.13006656594173   -1.10221820259236
H          -1.55743128825932   -0.66759354003992   -1.74865379399514
H          -1.59772279005448   -1.79710707986915   -0.70105573030150
O           1.45925648417520   -1.50937872669500    2.47841972235665
H           0.92847777970830   -0.74960404249004    2.76427478222870
H           2.31884263738706   -1.13886025529446    2.25237836781568
O           2.36775455239272   -0.13437383803119   -1.76675083236590
H           2.34814127799132    0.12312737946877   -0.83005721999415
H           2.88553843766978    0.53951655593856   -2.21214389569106
N          -2.21253644731422    0.83200199484424    0.60776841371639
H          -3.08697322580714    1.31469976007693    0.78704870367697
H          -1.68358518797402    0.60623947727634    1.47553720273682
H          -2.32099821159554   -0.03737131190700   -0.03524327990487
