    23
        -45.35990509  Gyration_radius:  2.37827546504 Dipole_moment: 0.649
 S           0.74572435743719   -0.63439844671148    0.41828755931206
O           1.80729411633331   -0.34713703584365    1.32942977302473
O           1.14966968242144   -0.85885997672069   -0.94688795308321
O          -0.29440285368206    0.51724945391783    0.42628106693067
O          -0.07399215524263   -1.84208032017006    0.88296507719831
H          -0.88266674278644   -1.56918032465834    1.45748588616690
H           0.04864173443598    1.19426439512552   -0.26874500992454
O           0.81168007325138    1.92038338867820   -1.34409839267730
H           1.66333532115141    2.10311365231394   -0.84543074809077
H           1.00933335699112    1.17275663418902   -1.91912925324169
O          -3.01752373283330   -0.14629324428392   -0.15321557216996
H          -2.60945717917379    0.72230327656484   -0.10897250288328
H          -2.48820519328478   -0.64295264124528   -0.81260030335560
O          -1.30461613837649   -1.49107548004370   -1.77635709669379
H          -0.37770146172613   -1.26336151451057   -1.57068994927051
H          -1.35272474146140   -2.44807663814364   -1.73918427783136
O          -2.20593805604092   -1.23657221440148    2.08082594848648
H          -2.61329322805854   -0.77261050517828    1.29443100513203
H          -2.71581314967817   -2.03815831308130    2.22006686711629
N           2.98512736790055    1.98613134183764    0.15615673285115
H           2.71050891101759    1.15114190094382    0.67591971290857
H           3.12835370770828    2.73154098831950    0.82613546257445
H           3.87666602369032    1.79187162306268   -0.28267403247424
