    23
        -45.34966254  Gyration_radius:  2.31827303682 Dipole_moment: 3.429
 S           0.55406552634542    0.73913829977618    0.89120070392074
O           1.88575694340402    1.21426457564090    0.64270814850869
O           0.18191584441944    0.65136752442643    2.26614392034984
O           0.41813324176889   -0.68534252209284    0.22715983585728
O          -0.42562288203375    1.56609727193640    0.07337541048953
H          -1.18250898654366    1.01605031847784   -0.37907304864749
H           1.02481742991239   -1.23616380625947    0.76988162586010
O          -0.17242178847945   -0.69500858425760   -2.62570855325417
H           0.13383289779376   -1.45137492610130   -2.11998470890151
H           0.52364483781751   -0.01211187881893   -2.51327327913502
O          -2.13181894414423    0.26327349255214   -1.21810715786587
H          -1.46011261667611   -0.17696853677540   -1.82066075238444
H          -2.64273807118258    0.86699077625749   -1.76293948146588
O           2.14570233415411   -1.24900016295605    2.09589164183416
H           2.82313905369102   -0.61199886653150    1.84706023531181
H           1.56784794631841   -0.78924275713525    2.71986983289650
O           1.69843740260972    1.15966117560721   -2.02942103326133
H           1.88179118126422    1.18380886952109   -1.07221371847849
H           1.58198389181474    2.07227985496617   -2.30007365445911
N          -2.33500031870586   -0.98040921206442    1.73212083901881
H          -2.54142128770379   -0.65415610869485    0.79551118133868
H          -1.85058115365544   -1.86493041466051    1.63658477694826
H          -1.67884246220130   -0.32622440283086    2.14394723554017
