    23
        -45.34966251  Gyration_radius:  2.31803644453 Dipole_moment: 3.418
 S           0.30310111714774    0.02578712352737    1.24700617322210
O          -0.71802576411482   -0.30536459545628    2.20004937259420
O           1.35134518842931    0.86085755868171    1.73733074051851
O          -0.39207790960463    0.73544227758420    0.02139880887782
O           0.82495615902060   -1.25669420900289    0.61786445189973
H           0.98583166350336   -1.19937227125000   -0.40731064817968
H          -0.70636224257109    1.58127259119988    0.41095052391573
O          -0.80628049680548    2.54333076163715    1.85302837641740
H          -1.27881194274844    1.98824439272249    2.48171150221645
H           0.12866664596827    2.47060473025735    2.08782742435670
O          -1.57515163495516   -1.04346590620525   -1.95853345284090
H          -1.84304766156514   -1.41555919990078   -1.09064150515140
H          -1.74234872924684   -0.10062880534154   -1.88973142660710
O          -2.12117068170528   -1.88367952436539    0.55014544059961
H          -1.91498647436333   -2.78223707371291    0.81453267227050
H          -1.70690861886375   -1.30527637689418    1.21656693347032
O           1.01229141087517   -1.23935513794356   -1.88031998211541
H           0.02378528579711   -1.15579420719451   -2.03495577654104
H           1.27007957425593   -2.11342955769500   -2.18350533163476
N           2.48631674048710    1.47772302276138   -1.02155051053971
H           2.41674196503679    1.29884691962684   -0.02597922450216
H           2.20411518160915    0.63182975467848   -1.50233302179349
H           1.79794121440811    2.18691774228339   -1.24355153044307
