    23
        -45.38013872  Gyration_radius:  2.28511876279 Dipole_moment: 4.777
 S           0.45552354219113   -1.48721432081332    1.05583425294624
O          -0.94178786346543   -1.50601341819466    1.44895170240565
O           1.09863066773609   -0.22303829938004    1.40112171994937
O           0.64602297142888   -1.86113814223856   -0.33137010160046
O           1.20035819605910   -2.58338450437557    1.91937429276958
H           0.87618469524018   -3.39387767044371    1.54028099515010
H          -0.42191993337616   -1.01119863790498   -1.40557742798197
O           0.62973125673122    1.73725284401029   -1.79193671440253
H           1.47114453103829    1.25903761199909   -1.60391005325381
H           0.09332500902219    1.95038525098571   -0.42971953213381
O          -0.98923266626517   -0.36685785518667   -1.87031847567153
H          -1.72496033884087   -0.18440890804670   -1.27269351687155
H           0.01018482508729    1.02702191761929   -2.08154211716613
O          -2.49746325393066    0.29636768624325    0.46028856730091
H          -3.38651017180299    0.17527193510380    0.79662111142764
H          -1.94980404569629   -0.43310585883683    0.85926668650923
O           2.50928262717459    0.07301570242498   -0.87686617231099
H           2.24043569401534    0.06462088863792    0.05725297018887
H           2.16585768984633   -0.76504010879959   -1.21015894399279
N          -0.28961713737609    1.86704768205617    0.60189830313803
H          -0.21354184453710    2.73790576175188    1.11486364316627
H           0.28397832054515    1.10446882816606    1.05023806795236
H          -1.26582277080134    1.52288162525677    0.56810075254890
