    23
        -45.38014073  Gyration_radius:  2.28527540734 Dipole_moment: 4.839
 S          -0.73881449697350    1.53620211977939   -0.79216458526820
O          -0.55382660567735    0.37988730391161   -1.66340347922411
O           0.52272200842160    2.18148070672879   -0.47512183775765
O          -1.51951388931070    1.23536037000220    0.39103346801606
O          -1.58760070144769    2.56588160710231   -1.64128660622327
H          -1.78865429159887    3.24001107313982   -1.00054788857198
H          -0.59090080931028    0.44032694571135    1.62330462565244
O          -2.30467671137778   -1.25945542742765   -0.43131404681400
H          -2.53376255984200   -0.56479661958201    0.19809405917397
H          -1.78655076560596   -0.78540719864924   -1.10345484167732
O           2.33122393399508    0.77132137252390    0.70255027777799
H           3.11035294552743    1.30791937591423    0.85465332919368
H           1.66558139042338    1.36873749904907    0.26506578006566
O           0.02931201234439   -0.10370890690509    2.14541163445679
H           0.91130679845727    0.22730565282645    1.93507096358450
H          -0.19563399976419   -1.71185071190707    1.55671275040495
O          -0.27188555755247   -2.41054441998350    0.86503709148817
H           0.70834862189349   -1.86769721967229   -0.09972438925465
H          -1.12679028427654   -2.21071002689638    0.41625348594820
N           1.31611660531091   -1.25547179608360   -0.78850827694598
H           1.94075672298699   -0.64663910578050   -0.23022346395276
H           0.62965291120842   -0.61940467566809   -1.27363274064555
H           1.83323674170766   -1.81874791764716   -1.45380532993599
