    23
        -45.37030182  Gyration_radius:  2.26555002 Dipole_moment: 2.659
 S          -1.19455129044053   -0.21386643693129    1.39039791117475
O          -1.71323569365799    0.39064988181936    0.15775747121721
O           0.13698682746050    0.26255237628851    1.69651395281998
O          -1.31596971368008   -1.65564466367907    1.36752015459398
O          -2.13540037173188    0.29502549625029    2.55563757433266
H          -2.85007244049260   -0.33151263045007    2.50854080496836
H          -0.45613807903100   -2.41460214456683    0.15329564922238
O          -0.72258212086073   -0.59894653543061   -1.94906559611447
H           0.17711230706690    0.00796012908063   -2.02275316811599
H          -1.24132925948959   -0.17705975870185   -1.17710070423315
O           0.13244429545092   -2.55583491535855   -0.62472513392217
H          -0.39680244392087   -1.50859786363028   -1.54714920560938
H           0.99614819797186   -2.20055483626251   -0.35226010535385
O           2.03910775860503   -0.81703241991257    0.29678305656097
H           2.81495198446180   -0.91399928535581    0.85064023115903
H           1.34354345306363   -0.39879610428172    0.86780989596392
O           1.34905533105969    0.76510936251384   -1.81969102301265
H           1.83460490929579    0.21870192188304   -1.17482340307077
H           0.99244668555734    1.53934180062053   -1.28538784075238
N           0.20723132409991    2.48210455648624   -0.18327263351124
H          -0.08539699306580    3.43137050610445   -0.37687217808288
H           0.71326202538033    2.47822455771066    0.69429974897057
H          -0.62541671310044    1.91540700580092   -0.02609544920663
