    23
        -45.36440518  Gyration_radius:  2.44898938099 Dipole_moment: 5.992
 S          -0.29122348700950    1.39987001442596   -0.28808366496207
O           0.56686793177146    1.23563405618150   -1.41576301486017
O           0.37202852258544    1.26991257241388    0.99749651219756
O          -1.46239926311819    0.40489250066926   -0.31803191966990
O          -1.00761928892789    2.75210125152394   -0.35386629792999
H          -1.55143962868188    2.77275269095603    0.51242968150560
H          -1.15204260326332   -0.58267025880091   -0.14367374432805
O           0.29590290208348   -2.70013945644654   -2.22869549482640
H           1.03058047374547   -2.03791963336576   -2.21749419311572
H           0.70486965087625   -3.55527572874156   -2.36900316437633
O          -0.59458887696865   -1.90343791812511    0.12684970195356
H           0.27661038888282   -1.72984842547918    0.52712860225826
H          -0.40056593098774   -2.27546167382160   -0.77059769914661
O           1.81954351058197   -0.92472414211503    1.00778845055143
H           2.33599518401250   -0.99022913607666    1.81293105288285
H           1.36942054963357   -0.04929868089846    1.03378269466403
O           2.20762117170180   -0.91226260515518   -1.78699288915180
H           2.33417108190031   -1.01411560937096   -0.83298473263165
H           1.72692079318867   -0.07355381078904   -1.88083015578176
N          -2.10809702900474    2.35508832002769    1.92689158771806
H          -1.25619015524919    1.87488077926866    2.19934921783073
H          -2.84300023191525    1.66912260026859    1.81519686007170
H          -2.37336564584871    3.01468229344693    2.64617261914934
