    23
        -45.37326491  Gyration_radius:  2.28516153412 Dipole_moment: 5.852
 S          -0.48610174534847   -0.43422693892168    1.28297144302780
O           0.50484950843042   -0.94174993195596    2.19203009895700
O          -0.64800088753168   -1.25723546676570    0.08673081041152
O          -0.01240644870316    0.98884050897496    0.76349810194400
O          -1.77384395570412   -0.12635631628341    1.90775329754718
H          -2.35099301392572    0.77081213379153    0.98827871800394
H           0.57129876070155    0.90058091831050   -0.03680195834255
O          -1.43375429946297    0.33961388141241   -1.80893047961881
H          -0.58008422499283    0.72072547313369   -2.05141856246837
H          -1.20011942684152   -0.42235832351395   -1.22311695904591
O           1.68600447852076   -1.73788105877624   -1.14885379118245
H           2.29794760423282   -1.65223677630901   -0.39079687993571
H           0.80349091234953   -1.83859204330687   -0.74566872020301
O           2.91431658462465   -1.04437893570019    1.14785660803602
H           2.04083865801635   -0.96353744868319    1.59627215122721
H           3.44149704772774   -1.61169165009696    1.71258105369423
O           1.36003805598501    0.80338956192080   -1.45257686307843
H           2.22381976023181    1.20371341727371   -1.33865573561074
H           1.52495632739319   -0.19162050149804   -1.47760632735940
N          -2.67616900711051    1.48072981201625    0.18710943477405
H          -2.21989674201153    1.10786020420509   -0.71305368038799
H          -2.29976917010525    2.39651665194155    0.41311962593924
H          -3.68791876656107    1.50908283892441    0.10927860346282
