    23
        -45.35833681  Gyration_radius:  2.32294325107 Dipole_moment: 2.489
 S          -1.17659632346148    1.02476478975579   -1.07510953487568
O          -1.10943453030878    1.51232673666415    0.28472531504898
O          -2.49169645482736    0.89131858787995   -1.60096716742119
O          -0.46335465543412   -0.37092088698320   -1.13248630292220
O          -0.26532338785287    1.87015127279877   -1.95028836206472
H           0.57496481162087    2.01163506644619   -1.36081252323494
H          -1.12106052253270   -1.01598770825823   -0.73431816906468
O          -2.39166992630870   -1.53724572434212    0.07281551547115
H          -3.02181293815021   -0.88178144625309   -0.24640480514039
H          -2.10438766033875   -1.27145105554351    0.96728753087457
O          -1.10767977088103   -0.30680486389076    2.13871910617400
H          -1.33573906382985    0.03994137589535    3.00306284710644
H          -1.11804624913336    0.45781138690146    1.51646900579673
O           1.60796644485768    2.15916993894313   -0.29463642696395
H           1.24231547784529    2.83395762168353    0.28304256327090
H           1.66480094047255    1.33527761266790    0.27358802172654
O           1.66188281287218    0.03789315539310    1.24975528456365
H           0.79292413415568   -0.19591750316598    1.60202645249321
H           1.91201093618464   -0.69288000994613    0.64029048401617
N           2.09206017558965   -1.84566523147596   -0.67442343098441
H           2.91623226779004   -1.73478022724727   -1.25085205164802
H           1.29567630330523   -1.48563832253362   -1.19016675080112
H           1.94596716838268   -2.83517456539221   -0.52131660140007
