    23
        -45.36866414  Gyration_radius:  2.27355509757 Dipole_moment: 3.492
 S           0.20004800193348   -0.03829889065119    1.90646139088099
O          -0.10591927241460   -1.29340687858441    1.26392922801418
O          -0.50697155947211    1.08599038441634    1.30590331510103
O           1.63473578874984    0.23175266238946    1.99862503072982
O          -0.30404545498920   -0.15009496536736    3.40118724911437
H           0.16772727066956    0.55834016232062    3.82771508603364
H           2.30274065589531    0.31876936881852    0.68154747312525
O           1.14713186839306   -1.60965783879009   -1.03738579092155
H           0.67336205402441   -1.68610333335543   -0.17798366323562
H           0.50458277604644   -1.20072335599216   -1.64964250785971
O           2.51632432163047    0.36122592825812   -0.33274990796195
H           2.09357663364915   -0.53407559712833   -0.70385672778042
H           1.84748563682182    1.09977502444908   -0.67664432305017
O          -0.72096087457458   -0.09724246149070   -2.32157376926478
H          -1.41374929611762   -0.21301309074805   -1.59591737066647
H          -1.17689308163917   -0.16089102956470   -3.16118438784037
O           0.61150918556802    1.85865617395971   -0.96393219129920
H           0.11850879721542    1.30714994322712   -1.60163225675880
H           0.13933000692723    1.74837393382457   -0.10747758061348
N          -2.34534199582701   -0.37405162015746   -0.27990099175012
H          -2.19580629275358   -1.30299096116852    0.09743234288250
H          -3.33467554357158   -0.16538196227558   -0.22761008545179
H          -1.85269963616515    0.25589841361062    0.35469044857284
