    23
        -45.35226647  Gyration_radius:  2.49643199383 Dipole_moment: 1.966
 S           1.35404834851176   -0.90178900484391   -1.69566618755187
O           1.48650369816095   -1.19087104220527   -0.30080042707960
O           1.28626983120035    0.47964908005372   -2.05704753305751
O           0.20258591378886   -1.68875480086433   -2.30689545925081
O           2.58903067510978   -1.52520409545704   -2.44142279658629
H           2.74160517061100   -2.36844421248317   -2.02151497516701
H          -0.69109559471739   -1.51346543610438   -1.76588558048502
O           0.52959070288834    2.25893903606793   -0.23983495991625
H           0.59020102274847    3.13800696327831   -0.61764415353486
H           0.85989762865616    1.63927067956089   -0.92205833616812
O           1.46344733350146    0.57565254317948    1.85406978854207
H           1.23731172307972    1.34491809464210    1.31517510828751
H           1.56301983352281   -0.14866035524356    1.21953622285830
O          -1.83551015553501    0.90895496567791    0.28174773463307
H          -1.71044500536665    0.59211295150636    1.21892770619308
H          -1.04602130603034    1.44503069564055    0.09553120691789
O          -1.90017772833818   -1.23293521898450   -1.08327546426371
H          -1.85393119148872   -0.37462977977226   -0.52051365848763
H          -2.59728889905018   -1.08729416169170   -1.72707543275045
N          -1.20979134309535    0.00524584048010    2.71393620925829
H          -0.20480546594411    0.16743095635681    2.60323610611370
H          -1.34646067362706   -0.99010678427958    2.83411494312669
H          -1.50798452879354    0.46694310553582    3.56335996846461
