    23
        -45.36238438  Gyration_radius:  2.49487811407 Dipole_moment: 3.772
 S          -0.25706553472853    0.86019504159402    0.93975278295084
O           1.14555877978890    0.88406159081825    0.60712401538920
O          -0.62318177526474   -0.18477528671183    1.85818726876337
O          -1.10079728798459    0.73728512573830   -0.33491701425287
O          -0.67481766505637    2.22754812902639    1.49098570148256
H          -1.63957498218414    2.08051979653933    1.81458814850354
H          -0.89879372206805   -0.17274208317373   -0.83306746727022
O           1.22968563885653   -0.58241879869377   -3.28719952599432
H           1.69456178439671   -1.15884954342848   -3.89533812127503
H           1.90182652937153   -0.23773300181930   -2.65704737196902
O          -0.45404416863208   -1.42045716405581   -1.41019336072602
H           0.06133363655924   -1.13915818588997   -2.20429653985503
H           0.20912903677650   -1.74560466106162   -0.76403207386054
O           1.35225042546528   -1.81289578749634    0.57414840141969
H           0.82614862799923   -2.11503628314682    1.31912955936422
H           1.41689920445846   -0.84948612411322    0.69843000714441
O           2.93132844414161    0.06700613215409   -1.31733621250418
H           2.40111805152819    0.60939503018919   -0.71280615891927
H           3.08468559988758   -0.75809872552358   -0.84773470367782
N          -2.97662160509396    1.36066401217689    2.19599780917130
H          -3.49460950292719    1.59205723113330    3.03323012019742
H          -2.51744831092731    0.46150807298144    2.31610061729054
H          -3.61757119436741    1.29701547276036    1.41629413862096
