    23
        -45.36487473  Gyration_radius:  2.30482879159 Dipole_moment: 2.584
 S           1.17337661903772   -0.61209879562954    0.46803174915051
O           0.64209298406008   -1.92491000398055    0.19771086884733
O           0.19569655395066    0.24985305542779    1.12787575836229
O           1.65714172269501    0.04785931012569   -0.76427311076304
O           2.39916555045450   -0.77084160671851    1.41073525250032
H           2.82263100076435    0.11255583844642    1.38676750362416
H           0.52699581559125    0.28145303390474   -1.73513533964556
O          -1.45834823629730   -1.61677762843368   -1.30818901766196
H          -2.04182293337741   -1.33786064568036   -0.54964204830477
H          -0.65412367052453   -1.95897367724196   -0.84285860825002
O           3.28083479002227    1.58331506492909    0.62126655842200
H           4.16551455575588    1.61762955476228    0.25030435512869
H           2.69347949462072    1.24885459350047   -0.08479837922853
O          -0.39727813884244    0.43553677415917   -2.15815284746600
H          -0.94944501772041   -0.50306127831530   -1.87878632874153
H          -0.78330728897429    1.16927980768257   -1.57059476098162
O          -1.13079295067125    2.00154519676592   -0.27838091192923
H          -0.57087605379938    1.46835996159355    0.34034007463580
H          -2.02627261256905    1.95756850171971    0.06190487187156
N          -2.42469706101249   -0.88842324003815    1.04973578204572
H          -1.50366686557512   -0.50339480812588    1.27260906169221
H          -2.48845444255878   -1.77711219819835    1.53173258607766
H          -3.12784381503529   -0.28035680064995    1.45179692060287
