    23
        -45.36995126  Gyration_radius:  2.44114018491 Dipole_moment: 6.265
 S           0.51211042979319   -0.65628504063788    0.70463774982969
O           0.94661016642887    0.01469502323297   -0.51612765111714
O           1.30338747038914   -1.79928748802606    1.06225072737643
O          -0.97161743033023   -1.14286242123450    0.39593835997267
O           0.33213687059035    0.30891236885726    1.79758663359422
H          -0.88933782573882    0.98932282492499    1.44507321295038
H          -0.86417338963698   -1.57962942201391   -0.50208095202973
O          -0.81094815519957    3.11086444163319   -0.70604720070343
H           0.11213257841899    3.03580351898943   -0.33605151106893
H          -0.74050547437261    2.81393012071728   -1.61577031851962
O          -0.24895164360030   -1.96785179262074   -1.91231228472239
H           0.35220600752011   -1.20844374609480   -1.85565108331434
H           0.31353906390491   -2.74472072006509   -1.70549043391024
O           1.42679840086401   -3.71177350827557   -0.76779483053816
H           1.52101782983824   -3.03076063186640   -0.06637712351161
H           1.22236404599905   -4.53051468438274   -0.31309153405451
O           1.51527413884380    2.44982419025162    0.28533438109248
H           1.51931933849629    2.29690506730659    1.23409936598863
H           1.44834449376550    1.54844193378854   -0.10370739682402
N          -1.81626128127054    1.37646638652463    0.98812908349616
H          -2.44541397226992    1.76546804449904    1.68300427922102
H          -2.21631587497582    0.55191800506990    0.53783295483886
H          -1.52171578746350    2.10957751943526    0.26661554194716
