    23
        -45.37175364  Gyration_radius:  2.30667995873 Dipole_moment: 5.768
 S          -0.23089530763452   -0.29520196147941    1.61637281647693
O           0.15767205289624    1.03375712725938    1.14829800504000
O           0.76184912731849   -0.91355487547254    2.45524747508292
O          -0.36115016859487   -1.18043584120190    0.28828326524664
O          -1.59398963976955   -0.32197436323741    2.13515581666775
H          -2.41900887754675   -0.20365521559346    0.94009228290782
H           0.53229785847505   -1.21257985157894   -0.11533961209034
O           2.74372423427591    0.38140691216137    1.31268938500663
H           2.28303945535252   -0.19835624639922    1.95355198754883
H           2.09470752881331    1.09237794809076    1.19691309593331
O          -1.18787084768799    1.57432446234564   -1.00960119828446
H          -0.61528061027890    1.15875145902153   -1.68765319540119
H          -0.65199511106327    1.53735425766768   -0.17807127815548
O           2.09984759171538   -1.06915309869107   -0.72948735137523
H           2.57599428110596   -1.89903646635787   -0.66838044317321
H           2.46369127042942   -0.48086429681683    0.00174540349495
O           0.66799008815767    0.40065982036666   -2.60768089067326
H           1.28426220956593    1.06048744291312   -2.93128066589904
H           1.17361628346686   -0.17733278556446   -2.01339532944646
N          -2.88133611890373   -0.10611791670249   -0.04905231535644
H          -2.80153790896162   -1.00496360609161   -0.51510594376168
H          -2.24762435512679    0.62914125688648   -0.55991085257986
H          -3.84800304601641    0.19496583848116    0.01660956279106
