    23
        -45.36078156  Gyration_radius:  2.49045002164 Dipole_moment: 4.798
 S           0.40348747260360    1.13803397246030   -0.32201950153089
O           1.58782453197731    1.30013823229147   -1.10881545333971
O           0.60189305549939    1.13977578735331    1.10280281080243
O          -0.31319849727575   -0.17409742822884   -0.72030735570181
O          -0.61917137091580    2.20408826992315   -0.72182513069503
H          -1.42162095630651    2.13000749739180   -0.10827457923439
H           0.35061656228448   -0.99028877097308   -0.56058952813601
O          -2.75574325870527    1.94306235835639    0.65660060519473
H          -3.43651408741514    2.44459650344407    0.20234044585919
H          -2.96319049937566    0.97610802038659    0.51530628157618
O           1.33139252119684   -1.98717245869574   -0.29295670807630
H           2.03880039995548   -1.74335991518375   -0.93816373510655
H           1.69321124809995   -1.72374862174323    0.58457523793765
O           2.20844770815951   -0.79109871305769    1.91373003402250
H           1.97852846809341   -1.00157170706341    2.82043110940611
H           1.69549721622996    0.01439057944033    1.68365603688759
O           3.16248532350696   -0.76264802621922   -1.76350843763966
H           2.64014994740056    0.06011649538822   -1.68515336416377
H           3.97640214699951   -0.60126674777236   -1.28153638429492
N          -3.09751706447701   -0.63809214258900    0.08404653919223
H          -3.75985055508335   -0.95883742345594   -0.61121715753156
H          -3.13711981669462   -1.27588415478598    0.86899896361953
H          -2.16481052574324   -0.70225161667146   -0.31812073905916
