    23
        -45.36866405  Gyration_radius:  2.27357632103 Dipole_moment: 3.485
 S          -0.19279004479545    1.35653466175217    1.34129685312152
O          -0.71047351822344    0.04938844419581    1.66573252262305
O          -0.42238881383229    1.72028221820772   -0.05135335657823
O           1.21326502549617    1.53050521834953    1.70509008264302
O          -0.98796265108110    2.40013381739303    2.22421328444510
H          -0.42472664758064    3.16678898789137    2.18666706786324
H           2.12118953516745    0.59184838802271    1.00914164927396
O           1.28615180400493    0.52739641834432   -1.68180778527239
H           0.64535594729369    1.10355650210408   -1.20647110896060
H           0.79123797968195   -0.28752799671422   -1.89310893061791
O          -0.25466845680507   -1.72491270927957   -1.69671185586584
H          -0.53859350555869   -2.36029443025215   -2.35441381873067
H          -1.07888694027517   -1.23567088261626   -1.37863987455048
O           2.53038857773532   -0.13176186151131    0.38880873314513
H           2.17745653877101    0.15511643167435   -0.56188209340590
H           1.95205204829837   -0.98966197146459    0.60853196474495
O           0.82454700308587   -1.91411108232366    0.79776031768460
H           0.45496714471912   -2.04871203931026   -0.09690200755101
H           0.19106780138555   -1.31276533107617    1.25167474508721
N          -2.25484834038668   -0.33279975822177   -0.72442094348201
H          -1.73721833316565    0.53329786807125   -0.56900760086966
H          -2.44935103811065   -0.69669821240271    0.20155240478155
H          -3.13577110582969   -0.09993268083319   -1.16575024955927
