    23
        -45.36596463  Gyration_radius:  2.40349632827 Dipole_moment: 1.819
 S           0.43389987724712    1.34844975995027    0.69867839742971
O           1.18479643524151    0.68741595008105   -0.34112771060794
O           0.67799436323308    0.84399394250483    2.02072226746953
O          -1.06289366655751    1.26914405911044    0.36079325617657
O           0.70195793652157    2.85416234136447    0.64977293233735
H           0.56020377487174    3.07788887965715   -0.34621081281831
H          -1.46215428451393    0.30653694441483    0.49466072874334
O          -1.87889496532176   -1.07698740574625    0.67577552823255
H          -1.69306204345488   -1.51213367322799   -0.19329757640560
H          -1.22822768139942   -1.44911454041324    1.30123867595708
O          -1.01220809701166   -2.29676751307823   -1.51304224065184
H          -1.18766596151047   -3.23056944159424   -1.63867884786047
H          -0.07215698615586   -2.22881150342062   -1.21048242793270
O           1.35156303762937   -2.01846557253982   -0.34709499069746
H           1.45521718095234   -1.05427075396432   -0.43464779034875
H           1.14194262920598   -2.16448914067836    0.58556912881733
O           0.26048473868428   -1.74418088389940    2.24612348506122
H           0.26853630974474   -2.02057044611395    3.16434054060368
H           0.49734964109410   -0.78909015100093    2.24344201163888
N           0.30491506795733    2.90377927063094   -1.87191709745097
H          -0.68597483622601    2.84554281895699   -2.06675178195425
H           0.69566097604139    1.96633432128313   -1.90476779002631
H           0.74871653367872    3.48220271771187   -2.57309787568530
