    23
        -45.35728747  Gyration_radius:  2.56620467766 Dipole_moment: 8.002
 S          -1.37849968818269   -0.94213358473026   -2.20362268789606
O          -2.08338962357158   -1.39689869048622   -1.01430194042809
O          -0.05935392146337   -1.53417834059609   -2.33427245946987
O          -1.35605560579057    0.51058688493997   -2.29464308410973
O          -2.22063704737902   -1.45107516977461   -3.44666361282166
H          -3.04068155154738   -0.99306460113873   -3.29554898921022
H          -0.26352065532294    1.25973621714765   -1.42947452853934
O          -0.61436061966883    1.19856937411642    1.45277457936697
H          -0.73269844906538    0.13675639050037    1.36810722479589
H           0.16407254962050    1.33007561102846    2.09350178683997
O           1.58839552997215   -0.93230834429219   -0.48508371006832
H           2.41886083411372   -1.37193830410768   -0.67308674966569
H           0.97593124577071   -1.19813619399110   -1.23443948361026
O           0.43572626831506    1.54135923816122   -0.77237576602848
H          -0.23090234688242    1.45790040223712    0.48650623265946
H           1.05957233348476    0.79386655958418   -0.74722040878155
O          -0.62956948115139   -1.25985786371873    1.09671120854385
H          -1.27562819915593   -1.39954038043076    0.34629669259071
H           0.24672949302335   -1.34494515551192    0.68030907107699
N           1.51848943337735    1.39627727903222    2.96613545046448
H           2.26535632704756    1.77040115308070    2.39358907856159
H           1.77602834791960    0.45905460738271    3.25060884726752
H           1.43613483653763    1.96949292157907    3.79619322844505
