    23
        -45.35728713  Gyration_radius:  2.56661429798 Dipole_moment: 8.007
 S           0.73078549655519   -0.91514531821855    2.50480693601344
O           1.72696408856969   -1.38237355867420    1.55210020894433
O          -0.57675137883355   -1.50606948955862    2.28378584620753
O           0.68891620444741    0.53846485774668    2.57185724898213
O           1.20833252149375   -1.41098747576652    3.93298667503011
H           2.03926096487502   -0.95308295846048    4.00296768592188
H          -0.12598117487537    1.27645534625166    1.43340326458133
O           0.98755590926462    1.17712883680609   -1.24842212722597
H           1.07275511456434    0.11555314013725   -1.12339347390073
H           0.41110257347827    1.30337216237875   -2.07633678564054
O          -0.62078864366009    1.54931704448683    0.60845542512345
H          -1.21820174203724    0.80220185571216    0.42588518501936
H           0.36015792052290    1.44894070573638   -0.42418101234927
O           0.89412363866570   -1.27632526809742   -0.87327609565469
H          -0.06220852325023   -1.35493808160170   -0.70611221219798
H           1.31438483630711   -1.40554547030351    0.02499661518683
O          -1.66425574879347   -0.92761945291935    0.05229944982505
H          -2.51588605972744   -1.36541785221111    0.01511392639114
H          -1.27665778995081   -1.18405204475364    0.94189047752764
N          -0.65790141621640    1.36532151997735   -3.28217308417213
H          -0.83544371498760    0.42656755645939   -3.61800668151419
H          -0.35138356105678    1.93037863331137   -4.06384210680597
H          -1.52887952537561    1.74785531156025   -2.93480536530563
