    23
        -45.37261380  Gyration_radius:  2.32272278498 Dipole_moment: 5.615
 S           0.71552076535698   -0.47659188242519    1.79353853558822
O           1.25920513176239    0.60139356021438    0.95559583584980
O           1.17385168363976   -1.77597561150021    1.35463475701223
O          -0.71779582189805   -0.38096868844053    1.93607118186041
O           1.33919998159356   -0.20878840824298    3.22937052709106
H           0.87861729146111   -0.84652650528094    3.76494757055254
H          -1.62073761846689   -0.80644857524636    0.54088581427954
O           0.20499662673688   -2.45541299760196   -1.00302620493004
H           0.75844363742773   -1.16295120959443   -1.46472588839968
H           0.60617117990416   -2.45049114006179   -0.10584994359158
O          -1.91535257453725   -1.01454532264090   -0.36860617670362
H          -1.84550791174451   -0.18529402438222   -0.86079472828711
H          -0.72495211953534   -2.16165191538644   -0.84763973008033
O          -0.50722354734944    2.51775449884390    0.54714003236251
H          -0.01830694083309    3.32547595007562    0.71267682977885
H           0.07214109509680    1.78329700240348    0.84824813770209
O          -1.21067222104190    1.41249931685070   -1.75338693248695
H          -1.94769739859881    1.86500553809618   -2.16492093242672
H          -1.02180025083218    1.88674994197710   -0.90818100885438
N           1.07509163116519   -0.11106617417968   -1.56472754281383
H           1.27645023535377    0.20321950106079   -0.57368385596158
H           0.28048178747846    0.44719759703271   -1.90920222424954
H           1.88987536785443   -0.00588041156598   -2.15836407329452
