    23
        -45.38014033  Gyration_radius:  2.28504772503 Dipole_moment: 4.878
 S          -0.64290594646163    0.44168892861753    1.70966666576896
O           0.75097159429563    0.49380042754692    2.11338023517637
O          -1.01216554925997   -0.87405025478438    1.19691020567516
O          -0.99900694017054    1.52103700071390    0.81063918261348
O          -1.51218792959755    0.63761352792099    3.01650809728951
H          -1.31704765048388    1.53747344474841    3.25669280196265
H           0.11994506922230    1.70807001467001   -0.50334490596132
O           2.53061837089511   -0.01942460739946    0.31950524589532
H           3.40535806623585    0.05010701637650    0.70440680162126
H           1.88987054033739    0.20474579737470    1.04783993938454
O          -2.51379546142525   -0.01820514419411   -0.87281702452405
H          -2.18414654898272   -0.51981765302366   -0.10840866351929
H          -2.35376868264750    0.89859655631681   -0.61697364424880
O           0.76018819283853    1.59224872155510   -1.23126885797048
H           0.01912372505510    0.43912857435986   -2.28225744099555
H           1.55895517765136    1.23450815835795   -0.82408835683526
O          -0.43547751147357   -0.40669166522711   -2.50647653465098
H           0.23337493138801   -1.28022285461554   -1.51870550292404
H          -1.33356159552626   -0.30794519951934   -2.11167330376268
N           0.67207355082635   -1.75665026530612   -0.62468003023028
H           0.00307591165980   -1.54152497769386    0.16111449450295
H           1.56172611288509   -1.27895347786023   -0.39517657190548
H           0.79878257273264   -2.75553208895935   -0.74079285237249
