    23
        -45.38023216  Gyration_radius:  2.32664488107 Dipole_moment: 3.133
 S          -0.82716318139976   -1.07210624521415   -0.45501441620827
O           0.28436794130180   -1.73845020831882   -1.08102604542170
O          -0.90277348933956    0.33956683515302   -0.83002317708145
O          -0.78959630873989   -1.18508138008167    1.01729147288564
O          -2.13845123123552   -1.76607416758054   -0.93441910718755
H          -2.82325859458293   -1.39453426598563   -0.34303886167700
H           0.49735579759080   -0.38513198640063    1.46478639446207
O          -3.37790373883752   -0.80722653181859    1.19803131139417
H          -2.41671568499855   -0.84234136287965    1.38088239074299
H          -3.78854241369011   -1.46877808225835    1.75931900923577
O           1.23432591110836    1.29287083635010   -2.07236045244883
H           1.20268113327339    1.10446698430730   -3.01126196214459
H           0.40913230127870    0.90917584273797   -1.69577240744259
O           0.18289837267778    2.39992282595210    0.47780889037372
H          -0.44984248723184    1.77536480736538    0.06611774572513
H           0.71387138584823    2.72002354103230   -0.25884954473551
O           2.59750445121932   -0.53628058250417   -0.61481378076831
H           2.39242580212586    0.21296272438741   -1.20875562044329
H           1.90200059319753   -1.19149011903470   -0.83788577147545
N           1.33844990230706    0.25499772920669    1.52373823397925
H           0.98464154072103    1.21855069067583    1.27325577469793
H           2.00447342680142   -0.06643390652259    0.74130418279222
H           1.77011857060091    0.22602604143585    2.44068572073869
