    23
        -45.38014033  Gyration_radius:  2.28452401773 Dipole_moment: 4.854
 S           0.88263693181517    1.53557428497799    0.62525679371729
O          -0.40104618382809    1.22883312169578    1.24846485577425
O           0.71965696823126    2.05599120498184   -0.72031354217480
O           1.81962250906732    0.43106411387954    0.68104404203554
O           1.50459632055635    2.69571211488691    1.50211211246002
H           2.38478205569913    2.76891052410591    1.14778541319086
H           1.51714940369438   -0.77770975435109   -0.52938253099740
O          -0.77546519029520   -2.42692840214630    0.37132341702601
H          -1.56458962798114   -1.24226000473638   -0.02911325550688
H          -0.41723208783222   -2.14418003507382    1.24539512609121
O           0.34103714287760   -1.09355167149782    2.39968336212021
H           1.22930886088070   -0.97367922028293    2.04076241581830
H          -0.07424410367163   -0.22882094814272    2.24529439761058
O           1.13406573305808   -1.40840606608350   -1.16853638258091
H           0.70201799991686   -0.86949211087143   -1.84282583314706
H          -0.01682401676387   -2.31127908713701   -0.24769294525610
O          -0.48682990463703    0.56386522323484   -2.44236754866312
H           0.00149486065715    1.17516579993801   -1.82657557548789
H          -0.53233100722038    1.01712518006905   -3.28539458299170
N          -1.94308304014476   -0.24107314378824   -0.29911227432854
H          -1.62696475763438   -0.01248414380081   -1.25843554973455
H          -1.44790432251444    0.42718391507123    0.34881364702837
H          -2.94985453394017   -0.16956088491913   -0.20618556201355
