    23
        -45.38013962  Gyration_radius:  2.28525946539 Dipole_moment: 4.782
 S          -0.49530051644549    1.64070180411179    0.77414270649308
O           0.78256666873817    1.58608710159082    1.46094724603245
O          -1.33272106503510    0.48858153238789    1.09393998308154
O          -0.34949006050590    1.85806136600603   -0.65125666457005
O          -1.27707524669516    2.89397650292888    1.33982697270192
H          -0.78546094426998    3.62158054479528    0.97313100621156
H           0.81556609131787    0.79114291976970   -1.37219023773391
O          -0.43233527578585   -1.88225406688208   -1.70336782611174
H          -1.23559336381682   -1.31288264201226   -1.75407912558078
H          -0.22012252430218   -1.97401402444645   -0.24241402742310
O          -2.26247406911702    0.04027469238464   -1.39640400352441
H          -2.19141073278942    0.14220069415012   -0.43217867032151
H          -1.76883983020996    0.79800375660559   -1.73308604728051
O           2.29502913730434   -0.45606887485696    1.02664254819503
H           1.76199118288370    0.36234291417139    1.22011743660200
H           3.10519286339950   -0.37095221161772    1.53108191984314
O           1.39128086272411    0.04695853099601   -1.63254704611792
H           0.30942092819067   -1.26917611010449   -1.91844108324522
H           1.95940204138623   -0.12525183912239   -0.87134787441487
N          -0.05477795179760   -1.79934508577404    0.83474858766342
H          -0.33471637932533   -2.59047418314521    1.40312056727662
H          -0.61929686032728   -0.93964401785772    1.06642599946975
H           0.93916504448481   -1.54984931406836    0.98318763276758
