    23
        -45.35527499  Gyration_radius:  2.38543317412 Dipole_moment: 4.365
 S           1.38373996702613    0.22364410407954   -1.33695068341000
O           1.59180533259099   -0.60003520838633   -0.16804552293574
O           2.39746151099514    1.19506661122297   -1.59024946974404
O           0.00702055026261    0.96393267889272   -1.13538314660204
O           1.10916289659089   -0.63900550194240   -2.54838212880222
H           0.71248707124954   -1.55250702951913   -2.21267116196460
H           0.14283102735472    1.56015044244348   -0.37865199085056
O           1.48928352055880    2.16570680425907    0.76705575587224
H           1.78507999979772    1.42985226445712    1.31130208063250
H           2.09325903698838    2.18636292561287    0.00908410495581
O          -2.00827836332840   -2.07258807847353   -0.32775460583865
H          -2.48291264554177   -2.78199427074014    0.10859286513080
H          -1.57465774464534   -1.54292504352651    0.39143726287384
O           0.27605270619694   -2.71455116105512   -1.44722443847893
H           0.83945801013408   -2.57010002619199   -0.67678963200852
H          -0.65343642535309   -2.52017211034058   -1.14207174212349
O          -0.60048773813155   -0.75858733231649    1.46723297939097
H           0.24048162469136   -0.71561793380387    0.98401247496938
H          -0.91479005519418    0.16747019783012    1.55775003546306
N          -1.39481540224822    1.88213108951051    1.59445727399859
H          -0.55836384624715    2.45471792914501    1.59336131797377
H          -1.94307525288558    2.12784103433468    2.40891100684393
H          -1.93730577084747    2.11120761447811    0.77097735466083
