    23
        -45.37177407  Gyration_radius:  2.40220869207 Dipole_moment: 3.430
 S           1.11960827753245   -0.32304001555886    0.18343912041366
O           0.55434931568637    0.41197093800891   -0.93973642564243
O           0.18108270748412   -1.32277338782218    0.67742189128660
O           1.54853924231680    0.59590717242833    1.23872556090709
O           2.37563358920487   -1.10532974495935   -0.31187481434279
H           3.09331053216426   -0.43801854034810   -0.34069723940356
H           0.26192430159130    1.66779559091195    1.26424856332496
O          -1.77788728970409   -0.14351542627771   -1.94748199417024
H          -0.84415295885888    0.01839569768899   -1.65672796831101
H          -1.88826024484054    0.33228921539912   -2.77153554957833
O           3.92141201980270    0.97636440274260    0.19703997305271
H           4.61823237843105    0.82555316587721    0.83981591299544
H           3.09267134941301    1.08991221599989    0.70735252788667
O          -0.54934102109124    2.16921537765315    1.01919596463541
H          -1.65026383409661    0.97232376173289    0.94797748249695
H          -0.38000652982741    2.44802523903332    0.11434172221895
O          -2.05512147170329   -2.61884135092482   -0.48209204811736
H          -1.17708113120405   -2.55240901860931   -0.08743056105965
H          -2.02071782096304   -2.08068628489533   -1.28002025711021
N          -2.05471844524261    0.01788783414596    0.73378577479663
H          -1.22976954170434   -0.65080018117745    0.82882189327245
H          -2.31555169532785   -0.03232417005934   -0.26998311198941
H          -2.82389171907785   -0.25790247099085    1.33541357243993
