    23
        -45.36466367  Gyration_radius:  2.30018476278 Dipole_moment: 7.172
 S          -0.03502239337221   -0.92129069324283    0.06406122644639
O           0.42450153877526   -0.69160729572156    1.43525875203376
O           0.79025296871175   -1.83542546492397   -0.67751790989416
O           0.03717827212775    0.50466691533326   -0.62224618514509
O          -1.45964995925327   -1.24843901888909    0.03435514410686
H          -2.18696816841557   -0.04159934046252   -0.10447688263937
H           0.99260527086433    0.79705959052255   -0.63730182758264
O           2.53512291572765    1.18220473741194   -0.39863621807603
H           2.87269955506743    0.33299727518180   -0.01030526025251
H           2.60796111587236    1.83716893355487    0.29890422772085
O          -1.15078821011146    1.25358899850087    2.19620339588502
H          -0.49603541747706    0.55473964742438    1.93716982671500
H          -1.51926569421091    0.95427103838179    3.02998837946160
O          -0.73644771566641   -1.13771761604329   -2.90216018445715
H          -0.33492785469029   -1.50253378002038   -2.10277118307068
H          -0.03374856902839   -1.11345000538957   -3.55525474867313
O           2.98630168263536   -1.13143250008075    0.78335510091759
H           2.17859925611945   -1.01853377158817    1.31647832481139
H           2.70043729684620   -1.73825306443438    0.08808528911308
N          -2.51789713007084    1.02134480717541   -0.06663887893612
H          -2.10339048349332    1.32753263150087    0.85384720285587
H          -3.52366794824529    1.13789792959118   -0.12653550586885
H          -2.02785034871055    1.47681004623182   -0.83386209544935
