    23
        -45.38305556  Gyration_radius:  2.32075087338 Dipole_moment: 3.583
 S           1.24354380423027   -0.24088118375372   -0.58863241619497
O           0.08508319605616   -0.61375347089803   -1.38380046899816
O           1.32852745541270   -1.04267761237924    0.63717700773366
O           1.25344276504033    1.18069522215055   -0.27201140899575
O           2.50430071690419   -0.56065880574058   -1.45181040236066
H           3.23692275775773   -0.27979607661856   -0.86824171242103
H          -0.13765223197576    1.70257269771873    0.57190374503101
O          -1.05498946372514    1.72766817530320    0.92151900892677
H          -1.60530977940973    1.69820628030624    0.11574822515101
H          -1.16847986734968    0.27011061991414    1.48999541763893
O           3.65602282785466    0.41708460456618    0.71479394745119
H           3.15870518545503   -0.26477661861374    1.18384023353754
H           3.01334001021613    1.12397465939468    0.55524674451750
O          -2.25491442923642   -1.69482109737744   -0.59836241266800
H          -2.79416606929609   -0.98475594700059   -0.96364815392391
H          -1.38459008529383   -1.58303099797639   -1.02665375164343
O          -1.95460231980435    1.07948514545193   -1.55865320183965
H          -1.83551887245750    1.72096609955047   -2.26035963787617
H          -1.15879788843952    0.50251701880863   -1.58249794407535
N          -1.07785181933764   -0.79227353661534    1.60674315855245
H          -1.29110033687962   -1.10635939111466    2.54680318363783
H          -0.07432509980677   -1.00858840010813    1.33246059176623
H          -1.68759043591603   -1.25090737496810    0.87844024705407
