    23
        -45.36596487  Gyration_radius:  2.40379003378 Dipole_moment: 1.811
 S           1.04738448104656    1.10597941266531   -0.41461963120607
O           1.74382222034855    0.37579572089466   -1.43616818123694
O           1.01761819719112    0.45255664115647    0.87153479679447
O          -0.39358311284679    1.40599934365876   -0.85539677460285
O           1.64391078266145    2.50732345731396   -0.26707044043021
H           1.11444561588555    2.89710538569099    0.52659280121433
H          -0.91752649475519    0.54622443760378   -1.15610690395236
O           0.82302661235839   -2.06249968144932   -1.79619639433636
H           1.19318990553391   -2.46333835796944   -2.58479708285713
H           1.27074079374537   -1.19233607029483   -1.69261642538116
O          -2.17048957689260   -1.77864294812067    0.85020259377467
H          -2.62086821422778   -2.62375710543407    0.88849034109430
H          -1.21873077842735   -1.96170425278990    1.05122462305747
O           0.44277956206218   -2.19394522678665    1.00165849148787
H           0.74190093923570   -1.27409029829339    1.11341667673997
H           0.66925598618252   -2.42245137929072    0.08970263076666
O          -1.54426394055099   -0.72235487320980   -1.49966031772843
H          -0.79848890399134   -1.31395595199020   -1.71621163749950
H          -1.91365380464928   -1.05964055896529   -0.64589835979646
N           0.13664816922020    3.00351732404475    1.73311345272939
H           0.33349377609570    3.56298206983570    2.55245727409600
H           0.20494035905737    2.01724952342379    1.96803277578291
H          -0.80555257426121    3.19398339823876    1.41831571154504
