    23
        -45.36596487  Gyration_radius:  2.40378374798 Dipole_moment: 1.810
 S          -0.21221575822083    1.10295250816928    1.10923069277450
O           1.12301565623195    1.62937572138736    1.15247574176142
O          -0.30176901878262   -0.31794086412234    1.34391861013413
O          -0.87549088177595    1.42907796672562   -0.23778869987719
O          -1.10583201725729    1.84693626757526    2.10385501814295
H          -2.00035178259596    1.34090859299463    2.02832052720856
H          -0.30086521724039    1.12202716139524   -1.06227404405555
O           0.04552485473789   -1.99193457022850   -2.15089107905371
H           0.48729967905665   -2.55724186171176   -2.78634959113662
H           0.51310123704729   -2.12492824813382   -1.28864261525662
O           0.56546174722007    0.60771441142236   -2.11336639364327
H           1.44934512730415    0.55981878975413   -1.70163781550929
H           0.27828155262850   -0.33080731242634   -2.23925750480695
O           1.44253672243327   -1.98065520229054    0.10142351048564
H           2.13263792172654   -1.32978633913918   -0.08644450821117
H           0.80831655146429   -1.51747646438410    0.67697637037468
O           2.77625596398671    0.43524335865969   -0.50994122315741
H           3.60759693275227    0.90846943885629   -0.57686958644365
H           2.24966496239243    0.89862815960051    0.18020359150027
N          -3.05846805993047    0.27546582293708    1.61681927575237
H          -3.47683871522681    0.50735330982346    0.72557803886300
H          -3.77770650384099   -0.05652639507837    2.24579010294736
H          -2.36950094411107   -0.45667425193095    1.46887154113519
