    23
        -45.37304257  Gyration_radius:  2.28352815198 Dipole_moment: 3.022
 S           0.69918571896907    0.41206377739333    1.54964818979293
O           1.56627248289022   -0.59449211135363    0.96457549668547
O          -0.71513025493466    0.05620473021204    1.45290322560179
O           0.95684850872809    1.74397199663061    1.04601265513756
O           1.01411696398132    0.44197187477495    3.09988715882692
H           1.89355217033826    0.80415834589219    3.10783421422338
H           0.56616002417503    2.36955728605292   -0.51198765701718
O           0.16207567048026    2.31107455571875   -1.40506145435210
H           0.56446144434408    1.48329475920249   -1.76452766837784
H          -1.13789431890758    1.77144826314000   -1.00475187024573
O           0.92833252491582   -0.19090534188305   -1.63147989517229
H           0.12674214849458   -0.73990013362252   -1.54925775349917
H           1.37425488547097   -0.29077775464060   -0.77299143910907
O           0.87321588622222   -3.07008326057185    0.07694826253840
H           1.61443949723925   -3.33477054098842   -0.47026675104589
H           1.15109469373172   -2.24432335625210    0.51676984389232
O          -1.26025378507412   -1.55499006116577   -0.67305493570219
H          -1.13687529095947   -1.15617255775256    0.20664630292674
H          -0.75017069641072   -2.37972388402093   -0.60919952463998
N          -1.96648955103848    1.19775196026461   -0.53591767717586
H          -2.80557663159910    1.74960622466391   -0.39551492537478
H          -1.55750707284776    0.85992274667907    0.38357345002383
H          -2.16085502820852    0.35511251162587   -1.08078723793257
