    23
        -45.36324330  Gyration_radius:  2.34725177743 Dipole_moment: 3.225
 S           0.07434547240670   -0.52533365945273   -1.55368150899937
O          -0.59201636788499   -1.59523353701222   -2.22952994142628
O           1.06479308048347   -0.94990449830865   -0.59361459512234
O          -0.97302775507695    0.36161541394829   -0.81509133084099
O           0.67121531307167    0.44868601599974   -2.55269756846198
H           1.05634831738417    1.27063555708025   -2.04614376659993
H          -1.40420162809054   -0.19221696116506   -0.10175363879130
O           1.66077575546848    2.36079090541152   -1.25471400789128
H           1.76403662139991    1.95922089200347   -0.32960086419341
H           2.55037553507961    2.52188308552909   -1.57763950533399
O          -2.00384120643060   -1.23864824616698    0.94114304326920
H          -2.90754813115791   -1.46452057534858    0.70875145612622
H          -1.45513476591289   -2.03866664679348    0.71208273618880
O          -0.49102142568938   -3.14104913035479   -0.03180831389575
H          -0.63513243676558   -2.89578371699354   -0.96266717217959
H           0.39809306211591   -2.81674912703410    0.15516225873060
O           1.87448162388500    1.08606424137054    0.96392394782072
H           1.73103385344676    0.22763721575849    0.52747746653221
H           1.05839512126910    1.23669234844635    1.49535495202077
N          -0.59100512812418    1.33866346648582    2.09819944497493
H          -1.05466855905690    1.83325924346837    1.34552806236532
H          -0.81010625927455    1.80706038787177    2.96824580033540
H          -0.98619007254070    0.40589732525798    2.13307305537089
