    23
        -45.37526396  Gyration_radius:  2.39018418077 Dipole_moment: 5.454
 S           0.63679201401625   -0.80709080362837    0.31152793677789
O           2.03971550521633   -1.07119321614506    0.15595317259974
O           0.16902585685710    0.30221448244816   -0.54681706210590
O           0.37056717996791   -0.31192517651720    1.78118391492133
O          -0.21401883651454   -1.97766531672796    0.14479524262340
H          -1.58147270842502   -1.70945587670843   -0.34758026650773
H           0.84891156685293    0.56386994715947    1.78729370756953
O           1.54722638763350    1.90199452187646    1.22141922444275
H           1.16182712969977    1.78125303541195    0.34324047372491
H           2.49783427014364    1.67839753200472    1.11330067219914
O          -1.27636197791571   -0.08324123235716   -2.73203471138066
H          -1.42189660764770    0.77934715725011   -3.12448906833614
H          -0.59988790549475    0.04877640383158   -2.02972607584428
O          -2.06215036847845    0.86259033026089    0.76340848339378
H          -1.21791805842272    0.82375768749271    0.26065066865947
H          -1.80559929874705    0.73482902205934    1.68045364085641
O           3.88883820311936    0.74115058161947    0.67828594216681
H           3.30165009612931    0.01516792692115    0.37237766742197
H           4.47361816463334    0.34817034073224    1.32826792429827
N          -2.51620902172857   -1.28571712327076   -0.70927616776597
H          -2.28605647656296   -0.91272472715672   -1.65826337601665
H          -2.67843497109880   -0.46650403544227   -0.07678714889541
H          -3.27600016321641   -1.95600146118087   -0.71718478478851
