    23
        -45.37488914  Gyration_radius:  2.32742750772 Dipole_moment: 4.497
 S           1.23364935311019    0.43269821264441   -0.30944414472365
O           0.63881680030473    0.81372502923452   -1.58404972328956
O           1.20610548047591   -0.99875976208099   -0.08968359058955
O           0.58979078501355    1.15293536598295    0.80158634899771
O           2.72405251069239    0.90381820246613   -0.35406337633868
H           3.03703367369560    0.82416075885212    0.56931516300155
H          -0.99396015039665    1.38862977461412    0.32831609840350
O          -0.51478263830976   -1.54252364268798   -2.21793380893131
H          -0.08583575602352   -0.66830082748525   -2.23622656587017
H           0.06865706513164   -2.05927118450711   -1.65166962817345
O          -2.56646278003700   -1.01352575028358   -0.59621394112299
H          -1.97052726787161   -1.32075839302413   -1.32103917056687
H          -2.14798051604564   -1.36012294227573    0.21988014290931
O          -0.89014573080064   -1.64506879998713    1.38258310944871
H          -0.66944134058842   -2.44735775685993    1.85782479960719
H          -0.07552604189504   -1.38569943273318    0.89676763510188
O           2.74381759227084    0.88471567811278    2.30360287118269
H           1.81493972596165    0.95419688091949    2.00677819422335
H           2.94934966071246    1.70733454135342    2.75351560746993
N          -1.65725938383053    1.38783214554855   -0.48457489609809
H          -2.17659271824689    0.41706459724517   -0.51174339947747
H          -0.97543738224698    1.38796368256014   -1.27123612112783
H          -2.28226096101801    2.18631361233491   -0.49229161398762
