    23
        -45.36818760  Gyration_radius:  2.28536747827 Dipole_moment: 6.132
 S           0.46368756361157    0.67688912996957    0.20551152816316
O           1.30592709402000    0.59599345559613    1.36785518349051
O          -0.77428445753592    1.41859775806820    0.44304417933823
O          -0.00556922796359   -0.78437320546296   -0.17972008489716
O           1.13556008535879    1.14530474884731   -1.01016296083310
H           0.41856343706660    0.52926459735090   -2.09079517680381
H          -0.09363602806141   -1.29028928773194    0.68506899625110
O          -1.05153937686831    0.61265289299670    2.97344996312831
H          -0.26116865704305    0.98989395902427    3.36882789535919
H          -1.08771595448147    1.00410939733428    2.07838617178262
O           3.07965898010427   -0.77770029093127   -0.19499823732875
H           2.59772165057817   -0.35867722356408    0.53144098804309
H           3.08179530399490   -0.11324590903273   -0.88775517965925
O          -0.15670249217845   -1.77000088011072    2.18444147627487
H           0.77003610668895   -1.70782907313905    2.43291406555148
H          -0.59520505994868   -0.98341369102866    2.59311819131612
O          -2.40910098646863    0.55484415706598   -1.38030193172636
H          -2.85324202824114   -0.16631898340749   -0.92824611949633
H          -1.87170407363240    1.00869133598496   -0.67887067144065
N          -0.25811491850564   -0.02530270122826   -2.76784528851573
H          -0.19824345053100    0.30116496749784   -3.72709214888211
H          -1.21928170629196    0.14954246242276   -2.33325727054065
H          -0.01744180367013   -1.00979759652953   -2.68501356857584
