    23
        -45.36905048  Gyration_radius:  2.28703605735 Dipole_moment: 7.340
 S           0.80280037357891   -1.18597014046301    1.20561635822841
O           2.09319418938509   -1.05503173219320    1.80634983545774
O           0.87457113853903   -1.12715862297163   -0.26865482839764
O          -0.15635792555669   -0.15111320096013    1.65935193365377
O           0.17954720695728   -2.55945290832310    1.57658860306274
H          -0.77576877724911   -2.47295579621934    1.33825047325648
H           0.25348050862980    1.15421916211544    1.17580264626851
O           0.61331279013800    1.98015890158905    0.64578186132512
H          -0.03277466849509    2.03068933852887   -0.24045094581057
H           1.53010954585734    1.65298192223691    0.32095208592322
O          -2.19822070395044   -1.68667751077021    0.88529097696935
H          -1.80486088408884   -0.92619052459335    1.34310957930428
H          -2.15017320612604   -1.46394271021512   -0.05898804730773
O           2.69922285402180    0.75453732871390   -0.14187278105343
H           3.09831222822277    0.40053557413002    0.66490966485083
H           2.14833598571495    0.00260563412131   -0.44926358701443
O          -1.29828139802037   -0.81865455004560   -1.59704607517840
H          -0.44250145764813   -0.96075262228986   -1.10227281410501
H          -1.26029869889883   -1.40641079173482   -2.35341407197196
N          -0.88558238367961    1.98924321478030   -1.39387293696514
H          -1.74083191378056    2.51173907120656   -1.25429064246697
H          -1.12476409088603    1.00274209774651   -1.53718386005241
H          -0.42247071251677    2.33485884543770   -2.22469346794083
