    23
        -45.37675825  Gyration_radius:  2.29614933085 Dipole_moment: 6.052
 S          -1.02214120543275   -0.90942369841437    0.34686772828439
O          -1.12627041818622    0.04043084776009    1.43918266291514
O           0.31916539930257   -1.50052647698583    0.27040527504954
O          -1.39823366169220   -0.31948446583565   -0.93103950497292
O          -1.98786660278840   -2.10425975016696    0.63463752500477
H          -2.85390764866959   -1.65383904404439    0.67570489805364
H          -0.48437394090346    0.92925514076487   -1.62668364357718
O           0.29308663240274    1.51647995543178   -1.76661265249602
H           0.41897101258547    1.93995017512703   -0.87915426650403
H           1.31061910115201    0.48454347247597   -1.72762829777541
O           0.62371372224542    1.96624332299996    0.80218062419206
H          -0.10863462667912    1.40450790630646    1.12368889483731
H           1.42416101816235    1.47755616870930    1.04814493692115
O          -3.68992043360764   -0.08852456754384    0.54626754042562
H          -3.08270226600230    0.30993941315005    1.18533896161223
H          -3.29290641827711    0.09357336294307   -0.31562878297809
O           2.37297251752912   -0.14649285561488    1.32666388256421
H           2.53641665524565   -0.26533378135131    2.26342792529509
H           1.59368507310213   -0.70217168314845    1.11452586309250
N           1.92952740878607   -0.41177965370879   -1.47796878880020
H           2.26941509932841   -0.90468272860663   -2.29613398072626
H           1.26418552280274   -1.00741161842515   -0.90396490028744
H           2.69103805959877   -0.14854944182284   -0.85222193013194
