    23
        -45.35374506  Gyration_radius:  2.37196751555 Dipole_moment: 2.644
 S          -0.20881177230213    1.31410234208636    0.78449672485469
O           0.46216021838283    0.94158975057395    1.99963780665686
O          -1.01469610149029    2.49157271761541    0.86328709011199
O          -1.11551079732634    0.10232938431611    0.33693395627355
O           0.80027990780074    1.37444589554732   -0.34304052622575
H           0.31186575827874    1.33983170621102   -1.32906213700617
H          -1.80109733353670    0.07451112591941    1.03546704417055
O          -0.19451508726671    1.11980415560177   -2.57414866299389
H           0.52830887800872    1.26222553298461   -3.19128254737418
H          -0.33258473660187    0.07927647164146   -2.50392944707830
O          -2.38787100594429    0.84775819862771    2.50915789468024
H          -2.24715379858279    1.72600261422757    2.12364242897594
H          -1.69529831101493    0.73736337714310    3.16713175045742
O           2.02396162976770   -1.18622272262380   -0.69466900306717
H           1.91127731571965   -0.23334155561952   -0.59739829209156
H           1.84083841691929   -1.54430113289777    0.19388019303450
O           1.37392673119188   -1.57918959746009    1.93162161232494
H           1.02032681921223   -0.67108369332286    2.00534269165120
H           2.09126773984759   -1.63681519890868    2.56564866257185
N          -0.35859024683029   -1.40104391716755   -2.18875043706993
H           0.55560761090955   -1.54457491842308   -1.74442924219873
H          -0.50589748003195   -2.11765230382497   -2.88689582654943
H          -1.05779435509675   -1.49658824222569   -1.46264175408356
