    23
        -45.37304005  Gyration_radius:  2.28372104251 Dipole_moment: 3.055
 S           0.74094946735257   -0.88342361113934    1.31409024837415
O           1.75631508825127   -0.75284427711889    0.28533467263502
O          -0.54846271851578   -1.31064891091374    0.77402815408885
O           0.61624696130875    0.29742786297023    2.14147357503688
O           1.20155493043151   -2.05797874191841    2.26901967786664
H           1.93585898274813   -1.65657910400289    2.72106392615670
H          -0.07450998407254    1.81527704439236    1.70203382121102
O           0.76954458534246    1.43439890197920   -0.95996576696804
H           1.31561361468928    0.78120578486455   -0.48984639451566
H           0.13742257513690    0.89432286156618   -1.46919844973862
O          -0.54488580203038    2.42089678072707    1.08875445396258
H          -1.62793788733894    1.51569036093228    0.69989787835150
H           0.00378551952161    2.35898984140871    0.26933583510727
O          -0.91423888675383   -0.56529539546591   -1.81960358688389
H          -0.79621804001625   -1.04027945975151   -0.97777737133570
H          -0.21943097812481   -0.94718597707673   -2.38121291170439
O           1.58470717422038   -1.52583994949026   -2.31600551344255
H           2.31750288703109   -1.07815409340971   -2.74198133475809
H           1.70095331311668   -1.37243633106870   -1.35915055680605
N          -2.23957173822040    0.64202624470846    0.38797802061865
H          -3.16724632459723    0.63664292551151    0.79746192075582
H          -1.66649824817189   -0.19683002843598    0.69630497456419
H          -2.28145446131072    0.59061727073034   -0.63203529258045
