    23
        -45.35670089  Gyration_radius:  2.48760696372 Dipole_moment: 4.141
 S          -0.81555585291120   -0.58899479002273    1.00528479881131
O           0.36901584005128    0.00963422916627    1.57196930337681
O          -0.63687857568227   -1.87844286527699    0.41444823977675
O          -1.39114957994305    0.39261125384946   -0.03328298963836
O          -1.90516492166421   -0.65751531659506    2.09178655988767
H          -1.91458057864781    0.28344373943607    2.49801857444668
H          -1.59867455092214   -0.13118173342469   -0.91044950480638
O           0.85092686397273   -0.72110422264352   -2.65663830917834
H           1.14714075577586    0.19299529259359   -2.76272169500094
H           1.27081477977002   -1.00634300988504   -1.82632828552676
O          -1.67002970370315   -1.10336152198904   -2.01826263671940
H          -1.55814517938017   -1.89462679136556   -1.47557320729376
H          -0.78006785499170   -0.95390179861028   -2.43444931282140
O           2.51289214879995    1.36821019006943   -1.79020160619289
H           3.42545002887497    1.48281625414938   -2.06034854297774
H           2.51595715969915    0.70151650482846   -1.09128292367153
O           2.10872948001619   -1.00336369789152   -0.17931014690623
H           1.55127991466944   -0.57542175557402    0.49984458996917
H           2.06797046599460   -1.94094881653971    0.02221011067076
N          -1.51466520814865    1.78017990040113    2.78686483098310
H          -1.94181917964438    2.41496318538619    2.12527703324558
H          -0.54688525411598    1.63589901662665    2.51337976921655
H          -1.54656098788896    2.19293675321240    3.70976536038675
