    23
        -45.36237655  Gyration_radius:  2.41765840132 Dipole_moment: 3.450
 S           1.46036069116147   -0.40641726386619   -0.85700170091337
O           0.88417455030854    0.41600569989146   -1.88128423668863
O           0.75494678278432   -1.63736290434564   -0.59676474049923
O           1.60942327262842    0.36775180842762    0.44251502766385
O           2.92510428257665   -0.72989216195797   -1.24032339009906
H           3.21813992634255   -1.31786322458446   -0.50399666026418
H           0.80092059240973    1.09833913694561    0.68731932876348
O          -1.92565468567969    0.29970577135756    2.11586936783370
H          -2.79482733451168    0.66196299815352    2.29554823029571
H          -2.00910683127681   -0.24538086951521    1.28186835380306
O           2.88090218819290   -2.15847640516206    0.94307916423127
H           2.77299261331756   -1.49089864284078    1.62682974725627
H           1.99064935245456   -2.32923116044945    0.59236135233150
O          -0.22734976314215    1.91242369956375    0.95782564793393
H          -0.83326377656421    1.35228800073060    1.52158696168609
H          -0.68830454161424    2.01815650203174    0.09228870392504
O          -1.25051639444055    1.90847903568525   -1.51461578087089
H          -0.49227229792913    1.34046527237490   -1.77522770555224
H          -1.17967631933901    2.70439564210031   -2.04529986523201
N          -2.01900374895835   -0.85699549153526   -0.27290239396966
H          -2.12336828016516   -0.09171293299193   -0.93028370621322
H          -2.67357463772637   -1.58242195526679   -0.53821912887207
H          -1.08069565084691   -1.23332054474913   -0.40117257654575
