    23
        -45.35994379  Gyration_radius:  2.38132376187 Dipole_moment: 4.077
 S          -1.23359691521473   -0.78912870498368   -0.70641372186796
O          -1.18216771320609    0.62214418551484   -0.41221500941352
O          -2.21005474468542   -1.51977291970344    0.03709742586453
O           0.18460874827813   -1.38907375268869   -0.46256273070084
O          -1.41973566919370   -1.02808913253355   -2.19805840631072
H          -0.60503405028583   -0.65053492482578   -2.70496314593136
H           0.48845857571734   -1.18933795001840    0.46292759350047
O           1.06445088970513    1.64866059988138   -1.42842191468564
H           1.73971098719855    1.38577650401710   -0.77662372945642
H           0.20788183697685    1.44578698809584   -1.00655362210181
O           0.55996115523889    0.01551040841042   -3.37192276993420
H           0.89287559246197    0.64499180938619   -2.66436306294387
H           0.24589616256372    0.56610260689756   -4.09298877020305
O           0.80391260613789   -0.85158917057483    2.01903335219657
H           0.90275108774934   -1.68432087012904    2.48467515977751
H          -0.11079376181921   -0.48229637024365    2.26322743974503
O           2.56290511761413    0.95203861301275    0.77517699178885
H           2.62124004974052    1.71158635331850    1.35747250813468
H           2.03662061573176    0.28403497785533    1.23845075371269
N          -1.62908046848441   -0.00014583978246    2.36575686620583
H          -2.08018202867142   -0.66114731191998    1.73399067805116
H          -1.65204821000777    0.89001982996267    1.88086414627679
H          -2.18857989352854    0.07878409105545    3.20641398828706
