    23
        -45.36430082  Gyration_radius:  2.35818876514 Dipole_moment: 5.763
 S           0.04507479758755    1.00841887349108    1.23623165297810
O           1.41212634793076    1.44909588729805    1.10816729674725
O          -0.06095841583412   -0.44273767153115    1.39732863013968
O          -0.77827120115116    1.42795152823727    0.07394733804690
O          -0.58332262550256    1.68138714129908    2.47962920382098
H          -1.51079761615810    1.31309593558632    2.47370432332596
H          -0.24822144082194    1.22211489936079   -1.14094599320035
O          -0.15217246827914   -1.61076666932989   -2.35820930488595
H           0.30851562192894   -2.01497676872367   -3.09593421962244
H           0.35296356969160   -1.83856859750558   -1.54717498026213
O           2.52232485726507    0.50885839140749   -1.05793299783948
H           2.31598703255254    0.98786273418254   -0.22019379659288
H           2.42309545974970   -0.42908618445252   -0.82260419840923
O           1.39344151018021   -1.84820405252979   -0.18148670163458
H           1.67368320187326   -2.61806953274719    0.31601633606332
H           0.83939339803455   -1.30817314857851    0.45482035727965
O           0.26391769504907    0.93952944813977   -2.08513166939899
H           1.26200478775079    0.84488275087555   -1.78298044025915
H          -0.03617658719065   -0.00191673642632   -2.28200987332362
N          -2.75227737548099    0.35756604953911    1.92415489913629
H          -3.59185383918465   -0.01791039883457    2.34634262014487
H          -2.10691339308844   -0.40037572896576    1.72363061573215
H          -2.99156333690361    0.79002184020736    1.04063090202236
