    23
        -45.36430083  Gyration_radius:  2.35805576892 Dipole_moment: 5.764
 S           0.19698527835922    1.26954365515022    0.94674564486394
O           1.49747599959578    1.68645011074324    0.48361358358508
O           0.19827116294378   -0.10496411778515    1.45044216707614
O          -0.83082076877192    1.39401889761778   -0.11730270427118
O          -0.24944898731878    2.20610731697458    2.09466760230625
H          -1.14381608017662    1.83452695070701    2.33511807696075
H          -0.50156996532120    0.91704665494063   -1.32891780118704
O          -0.14057941813190    0.42918116920796   -2.25764792004223
H          -0.41792187419225   -0.53625256584879   -2.17913358561035
H           0.89816307192822    0.42152698718447   -2.12147624903855
O          -0.45758192342305   -2.11959552760856   -1.86461154452835
H           0.18790252030433   -2.14449806558457   -1.12464223246085
H          -0.10656175812407   -2.68001094895186   -2.55929062078894
O           1.44189069303244   -1.81918595834416    0.00254507723413
H           0.97353944247496   -1.15330234849199    0.58650115455493
H           1.84497480855450   -2.44620430262019    0.60507603606453
O           2.27714501863173    0.28198136981959   -1.57192567972671
H           2.26907075118799   -0.57635210601040   -1.11538824467846
H           2.18864290280513    0.94066126981223   -0.84232105505775
N          -2.40652566157775    0.76039238449068    2.24413712741148
H          -2.81186793259770    0.97077534383113    1.34062108408754
H          -3.14313861018428    0.48322502811347    2.88032120076190
H          -1.76422868002644   -0.01507119740290    2.11286888247151
