    23
        -45.36893094  Gyration_radius:  2.29123173286 Dipole_moment: 5.446
 S           0.95133569271156    1.03939926094682    0.61950971169032
O           1.55143246652803    1.39076935016806   -0.64054985371723
O           0.79271351692069   -0.42691451020937    0.74721244807603
O          -0.33741845544031    1.68752154143212    0.84212868637462
O           1.91774224446740    1.48974905540031    1.75549249347992
H           1.52625506317233    1.09562369248864    2.55766003435256
H          -1.40080995145971    1.43834297204277   -0.15550969837717
O           0.88265157679213   -1.44081728067416   -1.73928481827557
H           1.78556559115990   -1.43216438695590   -2.06246062999592
H           0.93080158532159   -1.09300766820167   -0.82488731285556
O          -0.13630650138481    0.90391500754939   -2.60704478572007
H           0.55167071799167    1.31647906634935   -2.04046771178867
H           0.10009135385467   -0.04538977648657   -2.57167777376085
O           0.77124513758653   -0.28375537119695    3.36695641265529
H           1.40010929689246   -0.89509804016543    3.75684963689264
H           0.66451308021346   -0.54679838958657    2.43047619872495
O          -1.98599869057478    1.04131865480713   -0.91232649454350
H          -2.03462691307964    0.00269970628059   -0.62062881372148
H          -1.33501303263041    1.05093086397548   -1.72914489477858
N          -1.75512151185819   -1.35015256053605   -0.13888978341696
H          -1.53096333771035   -1.99174622203307   -0.88994710902789
H          -2.42115611042786   -1.78647126336065    0.48436663364891
H          -0.88871279904393   -1.16443371203065    0.37216743407130
