    23
        -45.36022678  Gyration_radius:  2.36116720192 Dipole_moment: 2.369
 S           1.48581210260839    1.04783224174653   -0.70678453216224
O           1.69268600364425    1.70000445814731    0.55939503758467
O           0.13049328269950    1.13127915854177   -1.22231662881774
O           1.96624632702588   -0.33975611331649   -0.70567666734407
O           2.39535400656670    1.81316638710305   -1.75626354913050
H           3.14344298942396    2.03349887320990   -1.21183421524417
H           1.12389966949273   -1.47345939193865   -0.70819751991483
O          -0.02433330643474    0.39542391583788    2.15780083250099
H          -0.85978631565327    0.77096891897018    1.79521101484613
H           0.68414350424184    0.87146563397047    1.68454254025130
O           0.39670481399334   -2.24225029907492   -0.65132740781833
H           0.15140363026989   -2.27197264674206    0.37676772045865
H          -0.40299636192883   -1.84461454609262   -1.14237032528122
O          -1.36555617356914   -0.88069753364122   -1.89623003988613
H          -0.86908746866723   -0.05368362011446   -1.66360379195529
H          -1.35503032900138   -0.93853489520195   -2.85345205011892
O          -0.09524588168422   -2.13513430996681    1.79624721155398
H          -0.10132075997734   -1.13457789341947    1.97162066042726
H           0.61992676347571   -2.48960081108402    2.32781001608551
N          -2.06253075697418    1.41314416151065    0.68913393144610
H          -2.76303217719753    0.77251609817127    0.33750227937725
H          -1.37831914101637    1.55469414280891   -0.05065870063796
H          -2.51287443103748    2.30028809047625    0.87268419368295
