    23
        -45.37622498  Gyration_radius:  2.25363097141 Dipole_moment: 4.592
 S           0.32549615416795    0.27006065354275    1.26562486619463
O           0.92170988908094    0.33954716213058   -0.08032865857434
O           1.23321219732799   -0.29051034877633    2.23003465674357
O          -0.92709788124689   -0.68468237561709    1.12984852302919
O          -0.28272492233747    1.54269233985472    1.62257729122989
H          -1.31964806089192    1.61100371956894    0.49253821542266
H          -0.63474789719715   -1.54711436716843    0.74269687710354
O          -0.96083616411778   -0.53725719421455   -1.71938426797513
H          -0.12065835265415   -0.28304086070578   -1.28131138604643
H          -1.08627961780613   -1.46320684573804   -1.49208026529017
O          -0.04583693359407   -2.85892809760549   -0.03149217665053
H          -0.18965336164112   -3.66467256397530    0.46841058119136
H           0.91640184822559   -2.62718118562733    0.09670811822820
O           2.34787010596282   -1.97770698077978    0.54059725793644
H           2.06520872316822   -1.42483988997849    1.30343507758139
H           2.56319312576646   -1.33702717420016   -0.14360620172037
O           0.59867649168248    2.78620442309674   -1.07695972206878
H           0.85437549353042    3.37102647732160   -0.36048674497043
H           0.88392514521125    1.88975281422782   -0.79079971031122
N          -1.74039013481875    1.70557758872122   -0.49253059247349
H          -1.68992548934761    0.76643289878410   -0.96391749426508
H          -1.03434928024149    2.32176020656746   -0.96886314142965
H          -2.67792106823095    2.09210959055211   -0.49071111289389
