    23
        -45.35962780  Gyration_radius:  2.40248417618 Dipole_moment: 2.600
 S           0.65594313936569    0.86554966163466    0.44463747192101
O           1.25091722209682   -0.08345186866492    1.34230532288597
O           0.48124283988989    2.18677236143420    0.97119011255400
O          -0.73134505620586    0.30506014170818    0.00022702058557
O           1.44835878322773    0.89117501852419   -0.85715911747898
H           0.84755853856980    0.98421675708268   -1.69632265157933
H          -1.13704789730025   -0.04508612224464    0.86385237055958
O          -1.32206373240610   -0.43771779518796    2.34859239828048
H          -1.43076942686392    0.44300836533629    2.77592313753298
H          -0.40272398403963   -0.68461838272210    2.51135841842559
O           0.05304525550355    0.88573644823736   -2.94161609916198
H           0.64810679737380    0.77819904912965   -3.68739049402290
H          -0.36204693147108   -0.01409220633551   -2.77427990051190
O          -0.82421443140155   -1.45991994507879   -2.25280732461871
H          -1.47927599556855   -1.19811241603232   -1.60053134540222
H          -0.04921399951627   -1.78475176017925   -1.72126829109522
O          -1.19022676578760    2.12139061206314    3.05159395672059
H          -1.86026201579350    2.79016846536325    2.89801812558910
H          -0.49738599829228    2.26943253672191    2.37618438224898
N           1.25757652597995   -2.15913026764011   -0.68361211306809
H           1.20366389267588   -3.07478402885174   -0.25338167041451
H           1.30095544431638   -1.46950874996847    0.06404691572018
H           2.13920780565008   -2.10953586434354   -1.17956059567157
