    23
        -45.35461395  Gyration_radius:  2.34754709045 Dipole_moment: 4.187
 S          -1.47474547199590    1.44219419579226    0.22598412568708
O          -1.59477547916240    0.66939812034466   -0.98151919106572
O          -0.71210715664240    2.63700398015301    0.16252582941239
O          -0.98190908018623    0.56372116838924    1.36525445558909
O          -2.95151730383834    1.80921925093085    0.65255054213674
H          -3.51169242588398    1.15975095115210    0.23319023695883
H          -1.19141940050891   -0.45767935382216    1.14175497365068
O           0.81684233723174   -2.13322906516294   -0.32912551291069
H           0.79108848301288   -1.61800657872818   -1.15279741381609
H           1.35416610335547   -1.57443486561511    0.29893026633418
O          -1.40849741032571   -1.81234408569494    0.83112047586175
H          -0.54924352839470   -2.01317189740173    0.29014022337093
H          -1.33412768026567   -2.33600787164798    1.63289300962321
O           0.45830232326896   -0.28760468860001   -2.35803124546008
H           0.22632618598367   -0.40737639870937   -3.28020053378630
H          -0.34483871661244    0.04542366068171   -1.90694321316272
O           1.75497049019269    1.64114929563550   -0.70325581493401
H           0.98254061743111    2.15689707693282   -0.43463984003648
H           1.47043171125815    1.06895790969123   -1.42825953269870
N           1.97176182882270   -0.37982122923165    1.31551966017437
H           2.09342706822137    0.37797514269484    0.63830027740452
H           2.85091582350816   -0.49947491257583    1.80264179772498
H           1.28410068153132   -0.05253979520690    1.98396643394083
