    23
        -45.36787737  Gyration_radius:  2.49147149176 Dipole_moment: 5.098
 S          -1.06617366545428   -1.22908122535065    0.45757603702743
O          -1.79944434475081   -0.14451838010679    1.06587912066538
O           0.22086944339749   -1.47870083875580    1.07497710161920
O          -0.88636974667999   -0.99273078351576   -0.99998188524615
O          -1.94101076089808   -2.51656444536633    0.58629758208504
H          -1.47057944106587   -3.16472679096927    0.02826339366928
H          -0.09148682375223    0.30471786043012   -1.16751769124435
O           2.21886459924613    0.10469206498025    0.67919894756380
H           2.97965518228204   -0.46332836391067    0.54857353301669
H           1.47292816421073   -0.50239563223302    0.93521145061190
O           1.70054688120658    2.91585278008857    0.94348836824166
H           2.06867286303538    2.07130928946434    1.22478614316421
H           0.79040685447679    2.92698371792044    1.25842839122850
O          -0.59012197850398   -3.56557421658830   -1.45330510319805
H          -1.16424145800402   -3.84330056027155   -2.17058143047283
H          -0.55181776580731   -2.58829265579656   -1.48850263685762
O          -1.11059881369531    2.33622703798621    0.76919962995050
H          -1.92622948570611    2.83373849433345    0.69290161741608
H          -1.38190705269656    1.40879705291480    0.99434528899015
N           0.49547093737550    1.19401554598563   -1.06098507175856
H          -0.06172804605608    1.85576365120648   -0.47093836913194
H           0.75465215713285    1.61339917810940   -1.94744583102246
H           1.33964230070870    0.92371719944795   -0.49986858631940
