    23
        -45.36002200  Gyration_radius:  2.40788214926 Dipole_moment: 3.452
 S          -0.05806773426341   -0.05620455079614    1.42548471482051
O          -0.23125196003613   -1.34053520528025    0.77393139597431
O          -1.28248445120583    0.66914517763155    1.62322395002351
O           0.92833212631372    0.77025940346342    0.67309085088792
O           0.60990710843420   -0.34647761966371    2.80994298840803
H           0.84115667034537    0.54193378593967    3.14170123600563
H           1.27028347488313    0.40677648472576   -0.64519133865995
O           1.30378396171692   -2.39341710070635   -1.00738845798083
H           0.76911847488291   -2.10861123420687   -0.21809152017905
H           0.73584275547639   -2.97103506192106   -1.52126171768579
O           1.42943823767818    0.06155130488343   -1.63856351345090
H           0.52799971269057    0.26202728384486   -2.13078653221858
H           1.48541203771434   -0.95573374127682   -1.51701898969669
O           1.44181794064461    2.17526463596611    2.86494436181403
H           2.39264828469927    2.28569603503811    2.93947790922222
H           1.26176665909931    1.93758866956342    1.93675952255538
O          -0.81604087323048    0.55391356259600   -2.66625208941588
H          -1.47954011228279    0.23206030952888   -1.95304004554107
H          -0.94428810610852    1.50131091243536   -2.74070662058601
N          -2.41351899399005   -0.21531952641537   -0.77338963192073
H          -2.09239187428631    0.25083045698688    0.08022999237604
H          -2.26900422637100   -1.20345393832951   -0.60056639237265
H          -3.41091914261662   -0.05757003430618   -0.85653007232918
