    23
        -45.36410734  Gyration_radius:  2.41010862206 Dipole_moment: 2.334
 S           0.51794474187628    0.21671067051264    0.81003196514129
O          -0.66388517470689    0.84375313711702    0.25769122255003
O           1.68965523671033    0.32060016703001    0.00057038057748
O           0.18793847875216   -1.26644556963436    1.08030369078104
O           0.79993688275276    0.78513250951307    2.19764548494602
H          -0.01473590110909    0.66578054046469    2.80263089424871
H           0.43524932316353   -1.77163424191380    0.21137782839035
O          -2.60296573534894   -0.48452051375330    1.51404656870491
H          -2.04762895498639    0.05854268538316    0.92085540376444
H          -2.34339482626652   -1.39589772150002    1.35710826488402
O          -1.32191769082594    0.51732819161821    3.57354817877824
H          -1.70188427768574    1.38150343790992    3.74919045471176
H          -1.91823776185016    0.07682235711177    2.91211075644113
O          -0.57399034181576   -0.27431604280189   -2.25786113602592
H           0.14129979708165    0.25361387169409   -2.67920655033724
H          -0.80535807041963    0.22293775738467   -1.45901254097900
O           0.82028951545636   -2.17051239390851   -1.16613273987250
H           1.70318032651214   -1.79869495351756   -1.25215476652367
H           0.22356307072815   -1.56709296245162   -1.70324456189098
N           1.64814376678747    1.20105524950864   -2.79542302600159
H           1.49524582209461    2.19481046260310   -2.91331954396726
H           2.45990096847674    0.94962396889346   -3.34577936018414
H           1.87165081461277    1.04089938275179   -1.81497689813115
