    23
        -45.36103527  Gyration_radius:  2.33183819974 Dipole_moment: 1.475
 S           0.15187814027444    0.68667836370413   -1.79053627499534
O           1.43373375094415    1.24997985172466   -1.44211719642002
O          -0.94585183747666    1.10490725735612   -0.94312971386658
O           0.21616624519455   -0.77410818432858   -1.92872605486762
O          -0.19701491032139    1.23296934744578   -3.23953464046797
H           0.62918988183665    1.15621444767853   -3.70720529748430
H          -0.44053569539078   -1.71567504021434   -1.10573423799933
O          -0.84026603391830   -2.34892294810404   -0.35166101656669
H          -0.01322666556080   -2.58965171031087    0.21016264540770
H          -1.38436508746780   -1.68028521753641    0.22949598271491
O           1.30901982312766   -2.56752970067761    0.98990403204307
H           2.05591249488838   -2.80595550437300    0.43714155601495
H           1.35202648425306   -1.58700784845351    1.09684562932635
O          -1.89025558709168   -0.45212393050702    0.93166846747423
H          -1.29687653352510   -0.22013084312536    1.65340467532316
H          -1.68013324039209    0.19306171721987    0.21205960672375
O           1.16423929002330    0.04860007661419    0.90756365473835
H           0.74396158235358    0.77692532381924    1.40540782569634
H           1.41223480853646    0.44790937131308    0.05414860995191
N          -0.32108592802488    2.22579482673980    1.68293969673994
H          -0.62832761548654    2.15472859259918    0.71356565779618
H           0.30445190074873    3.02052292178858    1.73819493049986
H          -1.13487526756867    2.44309881967936    2.24614148219346
