    23
        -45.38062482  Gyration_radius:  2.25481082516 Dipole_moment: 4.373
 S           1.59222621836900   -0.95908386531966    0.36801196384544
O           1.07112703375668   -0.00699236613889    1.34514933283840
O           1.55248314232262   -0.40937746092106   -0.98198499296932
O           0.99610397107309   -2.26836673878049    0.46516554934487
O           3.12429595327288   -1.13798971891222    0.73831430150273
H           3.29461909388821   -2.01484727031698    0.41174901152540
H          -0.69177040570036   -2.25387763270771    0.12552491660727
O          -1.60343041442218   -1.96171942799258   -0.07487349591707
H          -1.83035781182115   -1.33663517663361    0.62587497604786
H          -1.29270606316514   -1.08371152237360   -1.49525128029072
O           1.33570730847720    2.09929294277404   -0.21931563335914
H           1.61815418592636    1.38051623557151   -0.81627451909738
H           1.37394350457999    1.64666797484380    0.64186642187826
O          -1.48408358265516    0.27058583125736    1.68289422463393
H          -0.50596224035053    0.11382495200734    1.60911040170782
H          -1.66699061321797    0.36279232689596    2.61894772857993
O          -0.87879126225050   -0.38851467300988   -2.06388269081934
H           0.07894949429902   -0.47184337961666   -1.87284556361116
H          -1.18201279125412    0.87474459399195   -1.32186460152341
N          -1.24394610893001    1.71556896176097   -0.62153802336566
H          -0.23924691786389    2.04584864068953   -0.48886040138354
H          -1.56743962554735    1.32924238257858    0.28203581549000
H          -1.85087206879574    2.45387437034384   -0.95795342163650
