    23
        -45.37469471  Gyration_radius:  2.24182324613 Dipole_moment: 4.328
 S          -1.13096234627787   -0.78502146195558    0.77245565350555
O          -1.00960789972667   -1.93980335403279    1.61273745979051
O          -0.82026122575108   -1.05926460944495   -0.63417498456610
O          -0.01163220064700    0.26856610540045    1.22869067738719
O          -2.37265915277598   -0.03127493923300    0.89582218663920
H          -2.07231814472474    1.27992640143267    0.34871348248009
H           0.68803027378467   -0.31957243992079    1.63981977580460
O           1.87632963576323    0.97884054086884   -0.77826050404705
H           2.13841601241743    0.05817909286186   -0.92744364993023
H           1.40165549054784    0.96184361300885    0.06359491999063
O           1.67101509132618   -1.81954041449324   -0.75148965686295
H           0.70561572417300   -1.59994287254998   -0.74823832581445
H           1.76900051330014   -2.58269554049980   -1.32260692227299
O           1.58586902114704   -1.58882136164901    1.98458660026648
H           0.75212450197191   -2.07783409066259    2.10371757177491
H           1.90180256911704   -1.82062452790132    1.09374739516825
O          -0.44923020106472    1.11263574582564   -2.06994874806315
H          -0.68266949275436    0.21391327079046   -1.74281139894067
H           0.50094162924547    1.20320434440066   -1.82678908411461
N          -1.71167384550646    2.20607657720504   -0.11482146253050
H          -1.05984328354824    2.64887920635057    0.52610125338353
H          -2.48384395654568    2.82659010354856   -0.33550855678462
H          -1.18609870347579    1.86574063066256   -1.01789366226016
