    23
        -45.36515908  Gyration_radius:  2.42494626372 Dipole_moment: 3.943
 S           0.41943575858063    0.80794092615667   -0.81275743052210
O          -0.34296435415399   -0.22271369728723   -1.48821695407306
O           1.82750317212968    0.77719880518353   -1.05501163131675
O           0.14368001336909    0.68726953070905    0.69844646702124
O          -0.15698113077919    2.17655599112530   -1.15891342013121
H          -1.16882722610126    2.02105368700178   -1.26248340714597
H           0.64517856886014   -0.16967889586841    1.10450266759864
O           1.33994735758121   -1.33785581889403    1.48556434825763
H           1.12844741865942   -1.96067150409528    0.75453998154058
H           2.27837775724435   -1.07015993296491    1.32556876012301
O           0.72303010155800   -2.56047655374297   -0.80061033642661
H           0.08040186522579   -3.24934158339210   -0.97963633673786
H           0.36023302626215   -1.73621729169663   -1.18525113207028
O          -2.53616504833555    1.38116210285429   -1.32470032261298
H          -2.16833579547326    0.53092832693348   -1.60341145612309
H          -2.77443174175300    1.27834504193724   -0.36437863999182
O           3.63288472431623   -0.46893881089629    0.49203247909391
H           4.07174068876278   -1.09173411895723   -0.09128233310691
H           3.11196146485945    0.11820428349426   -0.08891015271247
N          -2.72905005472089    1.04727260355827    1.32817693832323
H          -1.72052848627295    0.94719108410429    1.41110895684457
H          -3.15991459040851    0.23486916416776    1.75103765350549
H          -3.00562349941209    1.85979667058448    1.86458529066333
