    23
        -45.37141694  Gyration_radius:  2.27797847891 Dipole_moment: 7.139
 S           1.25314402946634   -0.45477967115438    0.13829057472941
O           1.68846693894951   -1.38992485090427   -0.85976280580595
O          -0.02781975200846   -0.82526986360756    0.74281756609421
O           1.02092433264392    0.95824302976590   -0.54171120105198
O           2.23914273519810   -0.13237415895438    1.17165686552396
H           1.63775730310213    1.02799726739504    1.71792758809717
H           0.16513623780476    0.94675973166897   -1.04753581721567
O          -1.27978944839349    0.88901893997971   -1.74646587933502
H          -1.31073759114875    1.35022220450969   -2.58688173313658
H          -1.15014068957092   -0.08293756911569   -1.98021744156956
O          -1.33300668462892    1.36107771741007    1.17302378937682
H          -1.02451439698612    0.42475620185789    1.10051624363194
H          -1.60415276276855    1.58026258711150    0.27399542399304
O          -0.57794247736965   -1.52918728863505   -2.29800595767759
H           0.33533013832869   -1.52941378222970   -1.94948141855321
H          -1.05020566310689   -2.15771141361449   -1.71634702578142
O          -1.27246880790888   -3.02993969520853   -0.15770455012942
H          -0.61983202619842   -3.72757084657902   -0.07431167413408
H          -0.88744587837082   -2.25147410063211    0.29078553397026
N           1.08706938392704    1.94830222115371    2.03651548106533
H           1.51502424161752    2.74420582637068    1.57271063793712
H           1.11775406206012    2.05552620061964    3.04598505951690
H           0.07830675534164    1.82421130279922    1.69420074044481
