    23
        -45.36104174  Gyration_radius:  2.37843824668 Dipole_moment: 1.588
 S          -0.44057617378528    0.28218740605901   -1.03366755787632
O          -0.38111380991090    1.02132702399160   -2.24750886900484
O           0.49336380144941    0.71227298925443   -0.01055709932052
O          -0.17388873635783   -1.22518181763343   -1.30642054513595
O          -1.84899383197376    0.27482427767485   -0.45557950656924
H          -1.91906730228934   -0.55606340629173    0.17658821951948
H           0.49024218837655   -1.23592850985238   -2.08292488499566
O           1.48579793451845   -0.79621574517747   -3.15791167397087
H           0.98914451639039   -0.02613603520597   -3.46434118704090
H           2.20486377787167   -0.43331980933434   -2.59695200715118
O          -1.77348669824008   -1.75553272725764    1.00326622009433
H          -1.04862667004238   -1.45764871013275    1.63301039353685
H          -1.37060606639384   -2.39384671119766    0.40732268311977
O           0.17205433583866   -0.65839103455127    2.31546407635389
H           0.51425597901765   -0.22110291245113    1.51675367847687
H          -0.30453219664155    0.06033672079426    2.77173063306201
O           2.88861696874045    0.34139177951867   -1.18475826854307
H           2.08538731108389    0.62349079100387   -0.71015103374046
H           3.45791975512159   -0.07767466928547   -0.53622857892546
N          -1.26981429418304    1.67682982106657    2.39525635546375
H          -1.32513849330824    2.53945875576364    2.92305269634931
H          -2.20603323272708    1.44654505303389    2.08330255957882
H          -0.71976906262912    1.85837747027004    1.56125366671874
