    23
        -45.35637050  Gyration_radius:  2.28882572184 Dipole_moment: 6.037
 S          -0.50872674207779   -0.43074075435358    1.14158799513325
O          -1.93121491953817   -0.44558196877670    1.05866575679251
O           0.06294707112624    0.88601027529228    1.31823526626778
O           0.13045039720602   -1.08121674468658   -0.10237944180635
O          -0.01918948643874   -1.35774547527738    2.25969534774784
H           0.97435019277396   -1.40085353528011    2.13385810244496
H           0.27569547423385   -0.38962215604665   -0.86387974092013
O           2.45881386974622   -1.32583849495087    1.50327789642689
H           2.60301550263313   -0.46459468556345    1.05846237033766
H           2.44537410388449   -1.98555952551926    0.80489924120937
O           0.47180771673293    0.77840301495577   -1.74551365174868
H           1.24122592932577    1.20217162605683   -1.34084733877980
H          -0.33138761880695    1.28858800519115   -1.49153768651788
O          -1.75511072751295    1.73742627553356   -0.60791309007403
H          -2.08425459014994    0.97399579463229   -0.10626663292036
H          -1.53310085907687    2.39671629546846    0.05436822593026
O           2.43878110143861    1.15333538886038    0.33253453091206
H           2.96257681693736    1.82636781580981    0.77134765005455
H           1.54716779120790    1.16833960177391    0.75546757983902
N          -2.55381191410116   -1.28602959460009   -1.87027894210524
H          -2.71132816327758   -1.29174063661103   -0.86880070721274
H          -2.56935638671572   -0.31870329398690   -2.17099952995446
H          -1.61472454959383   -1.63312724794393   -2.02398319100391
