    23
        -45.35880969  Gyration_radius:  2.34115933808 Dipole_moment: 1.631
 S          -0.65665430151769    1.77790961083164   -0.09206942047267
O           0.43959416484141    1.76438266400901    0.86166231626799
O          -1.57229863953370    0.67611475488058    0.08287348281617
O          -0.16347915645958    1.89296205506978   -1.46909539576583
O          -1.47825669975608    3.10061648900948    0.17328824625231
H          -0.84577131554028    3.77390541662208   -0.05586672375845
H           0.74047330885349    0.89574150171126   -1.95740265634125
O           1.40665416315488    0.09594121344300   -2.12908676927130
H           1.75164104059550   -0.10963322388825   -1.12370860221269
H           0.84996801205860   -0.71063730684159   -2.37273680267149
O           0.03623217853639   -2.09396336002752   -2.33655814862544
H           0.52297764812449   -2.90724355538958   -2.48291645145203
H          -0.29602659941161   -2.12297617278819   -1.42034630694549
O          -0.46512824946862   -1.70329185705572    0.29910344624723
H          -0.97172225779157   -0.87615310962271    0.12532331784151
H          -0.59621168223474   -1.82518234148944    1.25417560261588
O           1.83347900920467   -0.34518962235459    0.27026467900924
H           1.45513325619379    0.49927216819302    0.62292574458704
H           1.11239919467583   -1.00439783592515    0.40490634077983
N          -0.74102322730276   -0.45926324052531    2.73454075886946
H          -1.19136800427828    0.16092278947261    2.06473479706854
H           0.13978349285089   -0.01707570166629    2.97324143688603
H          -1.31039533576314   -0.46276136569964    3.57274711836198
