    23
        -45.36607950  Gyration_radius:  2.38977692714 Dipole_moment: 2.164
 S          -0.69448132585873    0.22883396698080    0.70470408597180
O          -0.53825186133221   -0.60915243283045    1.85862250131191
O          -1.33536205579730   -0.41755679788096   -0.41813648994292
O           0.66978780059179    0.77315214722542    0.26054560740321
O          -1.46550176831875    1.48299747123177    1.09597890324344
H          -1.62617606579928    2.06223806671981    0.26335565745385
H           1.37792710556450   -0.01115390376499    0.18353559675707
O           1.86335341397748   -1.33969402453360    2.80981007359822
H           2.15145565405796   -0.69196443749348    3.45477010976228
H           0.93145198314029   -1.12856407044952    2.60605158647838
O          -1.89361284386827    2.77324218519326   -1.04161455929928
H          -1.27852765179330    2.30250244969638   -1.68338214693277
H          -2.78767602515199    2.54350166992792   -1.30567576615595
O           2.20776656801173   -1.18243884239670    0.16705500701952
H           1.56069363984472   -1.88219260696897   -0.08624646609276
H           2.35598793546894   -1.31821303793536    1.12846749750788
O           0.04466359185205   -2.70090766778523   -0.12978383602919
H          -0.17535090351964   -2.96262936860276    0.76805120516565
H          -0.58059110789885   -1.98908835552970   -0.35458458623476
N          -0.34774827144662    1.23514086798400   -2.51599465648037
H          -0.67285620095127    0.42027282255041   -1.99910317183755
H           0.62056588847140    1.38313943370099   -2.26049190793942
H          -0.38751746910630    1.02853447481643   -3.50593423460373
