    23
        -45.36078143  Gyration_radius:  2.48692837282 Dipole_moment: 4.772
 S          -0.78317542183272    0.95644455027017    0.19216858510497
O          -1.06837521640471    0.07373797353433    1.29185613722601
O          -1.87350942444654    1.19940722742192   -0.70215122256331
O           0.42229935943390    0.38996728922802   -0.59558085482377
O          -0.24154797655356    2.29258241660504    0.70467232037518
H           0.46942808683412    2.10959592000380    1.40263779416008
H           0.12548021506129   -0.50923543330831   -1.08044270499142
O           1.69651560630779    1.89899445651251    2.32377673352662
H           2.26508435649346    1.26189967242697    1.80529596267783
H           2.17969952494965    2.72669684944903    2.37564140384037
O          -1.85193808557975   -2.31257153206245    0.48031352297444
H          -1.64027155692701   -2.94189123048023    1.17203461167374
H          -1.67778340268938   -1.42336885874441    0.85961490176991
O          -0.39849767781628   -1.69989376842239   -1.66073253934493
H          -1.08817755272885   -1.33373404321993   -2.26596417403307
H          -0.90645915615004   -2.10940235454141   -0.92291302629232
O          -2.43432566349752   -0.41334914373082   -2.76376762647903
H          -2.29197774484721    0.30843405972036   -2.11989114265629
H          -3.28492270139029   -0.79738500579547   -2.54077762023841
N           3.04341617900012    0.25478324047810    0.71532410554777
H           3.20645739047279   -0.68028273402170    1.06669117034201
H           3.86695712116827    0.54207719477315    0.20142100300612
H           2.26562373167736    0.20649323394899    0.06077264928204
