    23
        -45.35387117  Gyration_radius:  2.40313000487 Dipole_moment: 3.423
 S          -0.60340523247748    1.50277426893977    0.63902419116067
O           0.78297500985937    1.22600376338237    0.89051648232411
O          -1.39032162544851    0.43348696934277    0.12112905951959
O          -0.76128864863376    2.75392317401003   -0.21152075569091
O          -1.24065833541894    1.94331518122686    2.00902889671837
H          -0.64375597475296    2.56796060135314    2.41695626666685
H          -0.90775862679849    2.40850530037542   -1.20900732258490
O           1.34311167110871    0.72904972166249   -1.78818548439551
H           1.38356269969513   -0.25788467944683   -1.79295561424459
H           1.40335038812721    0.97948000227710   -0.85738718585698
O           1.49896983896283   -1.90584977850242   -1.44106980484079
H           2.34299897632338   -2.29201473626450   -1.68027615700131
H           1.50015486740759   -1.83941832344358   -0.45211009037401
O           1.49488842331676   -1.48471937174630    1.17839243903329
H           1.40629786309656   -0.52216527483848    1.18808225208753
H           0.61706693106498   -1.82559725193180    1.45685329122629
O          -0.99264516608096    1.62726871331150   -2.39869607649760
H          -1.54894298558139    0.88914290183808   -2.12475466271111
H          -0.05037046129773    1.27667110699183   -2.37228573442853
N          -1.13677404074419   -2.06806663496762    1.64545070784186
H          -1.48577421441812   -2.88711392115057    1.16329537109287
H          -1.38816987256094   -1.25436557709962    1.08922384367822
H          -1.62351148477868   -2.00038615530851    2.53029607744727
