    23
        -45.34966237  Gyration_radius:  2.31826672873 Dipole_moment: 3.421
 S           0.05650900565839    0.44537863427124   -1.20258068484525
O           0.36567503190582    1.83351416578060   -1.39847639875818
O          -0.68175392046870   -0.17268177939169   -2.25585815268461
O          -0.75734149592830    0.31725179856015    0.14292787146455
O           1.33822524650157   -0.30313739091905   -0.87115591833582
H           1.23994048909735   -1.01195609307410   -0.11743331856501
H          -1.60151276570570    0.77305473402201   -0.06989719852206
O           1.20729044299707   -1.85687342407668    1.08962212999312
H           1.05166676578958   -1.12630030324745    1.76058260818433
H           2.08020637306019   -2.21671757744499    1.26526757696249
O          -2.49320998250166    1.63855779242359   -1.28475952743599
H          -2.35174905679759    0.99628108391512   -1.99318556190348
H          -1.93466299024209    2.39278547182741   -1.49899756082712
O           1.76176989487305    2.11791844531482    0.87140117715587
H           1.24654094407484    2.13059464618760    0.04389476596853
H           2.68423083196650    2.12348451985046    0.60922086183117
O           0.83938172139401    0.23787490406581    2.57820295647836
H          -0.10790278328669    0.38984228517875    2.54380337417316
H           1.23427999911188    0.95538911091634    2.03722689653347
N          -1.35834172234501   -2.67455085891361   -0.65330364233779
H          -2.12396795234666   -2.25201180796931   -0.14190644197794
H          -1.13686218069287   -2.05249775546843   -1.42278831014958
H          -0.55841190611201   -2.68520060181277   -0.03180751240967
