    23
        -45.37423931  Gyration_radius:  2.24416542557 Dipole_moment: 5.567
 S          -0.03729987261576    1.41507598146389   -0.25336332431648
O           1.18498770123231    2.18181944323052   -0.09074902292347
O          -0.63187456235764    1.02438346802037    1.01242536574660
O           0.20486009830015    0.23665766076652   -1.10009984100194
O          -1.05202720414315    2.33232309772528   -1.01540462625169
H          -1.75813900351723    1.74075312249179   -1.32859485910737
H           0.15784788799928   -1.40802730415943   -0.42854999044754
O           0.02330171084186   -2.16507325798449    0.16871459218991
H           0.71805958115901   -1.47449613599218    1.52431767851810
H          -0.91662321049520   -2.08539443074034    0.42924598245178
O          -2.27026378817510    0.11107651041713   -1.91062530626718
H          -2.39582573106958   -0.05158543104363   -2.84751048375511
H          -1.31801360681172   -0.04552508247126   -1.71789494499973
O           1.08947941009170   -0.72650403467271    2.06803253337896
H           0.41940497150934   -0.01955194560555    1.96052697506429
H           2.14047379702531   -0.25172767284428    1.19387854597239
O          -2.37885607046481   -1.04536501184439    0.71162543016593
H          -2.76648437319990   -0.81322274075223   -0.13910735131237
H          -1.87075143134245   -0.26030267146357    0.98373266734983
N           2.76445826382498    0.20430642890977    0.38462952063411
H           2.23382343765051    1.10815656210723    0.14907067074493
H           2.74186394031319   -0.39831118183892   -0.43388488025210
H           3.71759804422687    0.39053462626310    0.67958465841567
