    23
        -45.36731694  Gyration_radius:  2.38358271599 Dipole_moment: 6.472
 S          -0.42653817721000   -0.87218800050994    1.08176971199999
O          -0.41380804255063    0.57016703099248    1.28623128647087
O           0.78703558436724   -1.52997439072088    1.51347317293666
O          -0.73943925998297   -1.19199798650212   -0.32222794006914
O          -1.62774628607732   -1.41735740858294    1.92841457191297
H          -1.56759399265024   -2.38216121610514    1.78051209730653
H          -0.56822160648608   -0.22692103805154   -1.39127572668276
O           2.10578582961979    0.95442893542039   -1.71769098715114
H           2.55386326483855    1.77280527265655   -1.93653328292767
H           2.22373787127804    0.82100998809819   -0.73681104918369
O          -0.68767349855470   -3.68926097810843    0.95564853919993
H          -0.84108881390467   -3.40496871430579    0.04837419355449
H           0.12118951934329   -3.22285628812729    1.22635356490939
O          -0.40732862246184    0.57215534721451   -2.04479785280654
H           0.59702102839999    0.71771025540005   -2.01916890566325
H          -0.86614726511669    1.40393234381779   -1.49753460901418
O           2.20968533337462    0.69643824229511    0.88409549864427
H           2.28103844776464   -0.23333776109997    1.14068937465255
H           1.29340208268080    0.90631844299209    1.14379048448744
N          -1.42051294509694    2.32051323180588   -0.55005375163057
H          -1.15813675652743    1.78641660059203    0.29168992892042
H          -2.42836780512597    2.40171203220361   -0.57778902897074
H          -1.02015589990472    3.24741603858040   -0.48715928091411
