    23
        -45.36742377  Gyration_radius:  2.47495579161 Dipole_moment: 5.009
 S          -0.35248053443631    0.50033554432868   -1.09710177029925
O          -0.67164382179791    1.86191453092661   -0.61962075918025
O          -1.24260330989969   -0.47061608399319   -0.47306106468683
O           1.03962996527523    0.18162056880644   -0.88190774358266
O          -0.66361644375643    0.47089418064866   -2.63006304462716
H          -0.26396833999215    1.29006915005665   -2.98852214802346
H           1.56784013142454    0.11352564944716    0.70685691466741
O           0.15294685832762    2.98508907214547   -2.86379882736277
H          -0.51476947239680    3.59877982488744   -3.17840822091893
H          -0.04869464235812    2.81446875344857   -1.92220352965403
O          -0.29014666621757   -2.92251411677438   -0.25878982578743
H          -0.58458765190514   -2.00183507333591   -0.43456429370044
H          -1.08110586111031   -3.46297987888933   -0.29755971517900
O           1.23660100323850   -2.59169899913960    1.91087081589417
H           0.65978459825768   -2.75284578481808    1.12963245061625
H           2.05773831298851   -3.04960952115869    1.72298752723790
O           1.55463312279891    0.03780543870710    1.69135551727751
H           0.21867093370623    0.54498582346746    1.90108846002377
H           1.50571008780721   -0.93430392098244    1.86791792241762
N          -0.84140281572699    0.88284265745058    1.77431148265250
H          -1.35359955328196    0.08554320368743    1.37468407238441
H          -0.81185447288867    1.55333880336478    0.95720444127921
H          -1.27308141803861    1.26519015770618    2.60869133853321
