    23
        -45.36355188  Gyration_radius:  2.40883366612 Dipole_moment: 5.181
 S           0.68579035428202    0.83403226573023   -0.46479212705598
O           1.48765099703667    0.36818997694276   -1.55247115523306
O           1.02012210501996    0.24593664771954    0.81798337332303
O          -0.80380981177975    0.58120590149811   -0.73858299348890
O           0.78075088349068    2.35207349475009   -0.37605358338636
H           0.21383430817154    2.70140060472761    0.39936404879485
H          -0.95461034251450   -0.42609844158753   -0.99909005743622
O           1.04444643679026   -2.37943922301348    0.37304577975419
H           1.21921599540625   -2.84951483543376    1.19013721465902
H           1.17982023354508   -1.42912266840569    0.56052331285101
O          -0.97826154225643   -1.84328725103019   -1.31525670125324
H          -0.50385514095481   -1.84672974075172   -2.18062936733907
H          -0.34229112479697   -2.23368481566883   -0.68273751985820
O          -0.55550428001967    3.11855355014727    1.64674740345483
H           0.08977143772958    3.30319249422424    2.33301404646370
H          -1.01624206237523    2.26665499591180    1.90720646281380
O           0.76321165183414   -1.54213026292134   -3.29502087664028
H           1.48506890514119   -2.17399539563758   -3.28175924744276
H           1.08906947024591   -0.75763084001536   -2.81348723790429
N          -1.45970814882581    0.69435298123527    2.15565993440528
H          -0.56904810161829    0.30869249686563    1.84694670279144
H          -2.14553337966075    0.46220830151894    1.44805173997443
H          -1.72988884387343    0.24513978315624    3.02120083774212
