    23
        -45.37949584  Gyration_radius:  2.38822653258 Dipole_moment: 4.347
 S          -0.61873841935691    0.70721656223215    0.04504737324247
O          -0.83870838998075    0.71814516634511   -1.38566322039941
O           0.64859991243529    1.34903508024718    0.39499293276654
O          -0.65347218418486   -0.66763804378002    0.58060181671596
O          -1.76901872771898    1.49174283516315    0.71875486583912
H          -1.75882844208085    1.17547293880766    1.67163924204881
H           0.21216099356358   -1.50994909083533   -0.35342354238080
O           2.04053668516522    0.40503153701636   -1.61802692402136
H           1.56711664941931    0.80172938753720   -2.35481448063329
H           1.66133846096739    0.84435986134442   -0.82101272153143
O          -1.15248397172685   -1.38816684537307   -2.92454121317134
H          -1.10996310849385   -0.51779942363793   -2.46107836154014
H          -2.06495624362626   -1.67389230237183   -2.85729469626040
O           1.06141000236627    1.45180510093923    3.00475008239546
H           1.21181517078741    2.37363898165069    3.22082040029894
H           1.01580719808184    1.40824040036635    2.02408436877205
O          -1.38354901133216    0.35469572822140    2.98598092858091
H          -1.16413248028602   -0.40908255530998    2.43285254132963
H          -0.51742685780624    0.74083095353635    3.23936491765421
N           0.78730523989152   -1.87583043673530   -1.18158934893836
H           1.44814986045194   -1.07720144935115   -1.41432054659913
H           0.10447161657270   -1.96050117518579   -1.97137455864370
H           1.27256605688406   -2.74188320082785   -0.97574986551442
