    23
        -45.38117601  Gyration_radius:  2.29796881927 Dipole_moment: 2.264
 S          -1.42285694195906   -0.45970833862866    0.01917182203813
O          -1.98972029955581    0.51335185156131   -0.89275486373149
O          -0.66049579423772    0.18793883938920    1.08539359255025
O          -0.58821762337512   -1.44625664650325   -0.67012110866003
O          -2.60843399644576   -1.22857434537756    0.68359631019466
H          -2.16286258793440   -1.95017758919821    1.16702347746481
H           0.79095285289878   -0.78023122849224   -1.46469282918600
O          -0.83517615847285   -3.11885944714498    1.31206045885789
H          -0.53436934757359   -2.62230683041363    0.52096550763792
H          -1.04834690416008   -4.00501865483121    1.01134847516409
O           1.55006273457485   -0.18104096463915   -1.62414551912081
H           1.98845603069809   -0.13713105841414   -0.75163410774187
H           0.77060967428860    1.18179819751228   -1.72342600337502
O           0.58643189413044    2.55457233960500    1.00247573301081
H           1.45323754488777    2.20798347365691    1.23887097740829
H          -0.03234570744091    1.82736382759871    1.21841199754381
O           1.96306795441529   -0.09997180932414    1.05318168875086
H           2.22553207786197   -0.90166093166833    1.50763792767116
H           0.98105331547605   -0.06337045643977    1.12391389151142
N           0.07375813165412    1.97345141744307   -1.53525434410685
H           0.33039079647590    2.41587065476176   -0.61215639336334
H          -0.85587210290149    1.48572266187231   -1.37782103959602
H           0.02514443671624    2.64625502766454   -2.29204564091081
