    23
        -45.38031823  Gyration_radius:  2.32442485005 Dipole_moment: 6.191
 S           0.50096763223829   -1.20839289245537   -0.46606584752203
O           1.34141058841079   -0.03885736648216   -0.66567026332892
O          -0.81968134062138   -1.01551353451522   -1.08524320070532
O           0.35592841281155   -1.56212143193421    0.93552720141264
O           1.19412254319556   -2.39041445703075   -1.21370764003422
H           0.59482801207944   -3.14038146540160   -1.02727528136647
H          -0.13932998588678   -0.24911598567925    1.92778631162842
O           1.90162654804161    1.73687815714510    1.30776181860223
H           1.82328944904564    2.53037777398967    0.77229200048549
H           1.91660628199295    0.99658215376595    0.67437764183234
O          -0.91975154962068   -3.63607287310338   -0.23687308318826
H          -1.42240700087533   -2.95321186154588   -0.69837792216067
H          -0.61445795732882   -3.20904104059541    0.57740168311174
O           0.46999792526911    2.33783553949364   -1.40687346911831
H           0.52892013269192    2.44127967871315   -2.35769480846188
H           0.87905334326799    1.46339372177392   -1.20440402798971
O          -0.38803007474868    0.66206941005505    2.19360453515168
H           0.45658525997101    1.15846952806424    2.13483696832942
H          -1.17174347200484    1.09625894283027    0.96789531236469
N          -1.56799462822578    1.24038432436018   -0.03500345530178
H          -2.54200659322421    1.52162559194235   -0.03338242063676
H          -1.41770571080036    0.30284239107809   -0.51774216665506
H          -0.96022780570438    1.91512571557698   -0.54316987644298
