    23
        -45.38031827  Gyration_radius:  2.32438284745 Dipole_moment: 6.196
 S          -1.30405225869238    0.47416181780717    0.05680823332992
O          -0.80381474447399   -0.18805910912310    1.25054065105230
O          -1.21317727385614   -0.41477145203509   -1.11204034730384
O          -0.62885486571297    1.73249617248159   -0.21096920085916
O          -2.81859961667532    0.75928619956295    0.30416837969618
H          -3.08571213280821    1.21658316097134   -0.51802064507306
H           1.08465092678635    1.60190482696945   -0.23030661832978
O           1.97950959669523    1.20717465158978   -0.15141246654516
H           2.08093966788893    1.05591773952390    0.81298780461692
H           1.71779023977571   -0.17236344525548   -0.72876497430303
O           1.59487163938030    0.39881536721294    2.37482296980451
H           1.84930221824991   -0.50479979199497    2.57777918882121
H           0.65071301723732    0.35569550774364    2.13799406202899
O          -2.54437985957285    1.78230512640519   -2.11479924291755
H          -2.21446945025249    0.90668722643253   -2.35196245717119
H          -1.79450026841188    2.21981431729006   -1.68461587615099
O           0.67411837487841   -2.37250019276839    1.25734744833049
H           0.12809568719739   -3.15340937807066    1.35919654138589
H           0.06236897093967   -1.60289580550124    1.33759827514719
N           1.28652371317833   -1.12011580187461   -1.04416652812815
H           0.25990385886800   -0.89885914242218   -1.22278368426469
H           1.29280206902614   -1.77770157158225   -0.23774531339349
H           1.74597048032128   -1.50536644335464   -1.86165620976314
