    23
        -45.35447710  Gyration_radius:  2.47257269263 Dipole_moment: 3.791
 S          -0.96436953198041    0.32242780086719    0.96366956743494
O           0.37320332790426   -0.16511370351478    1.16933886598806
O          -1.83441236125018   -0.53784604485930    0.23538176937758
O          -0.86484296037113    1.71313845019790    0.28857626133657
O          -1.62822043571124    0.65695196422766    2.32133676485702
H          -1.12182685208812    1.41643971413202    2.69341017632338
H           0.03533282759423    1.67780740061202   -0.28133200958968
O          -0.35400845577020    2.91261889021737    2.70142055375825
H          -0.34593291243528    2.92454733606649    1.73322360026555
H          -0.89757614105358    3.64902197455040    2.99289182667285
O           0.60490069681814   -0.00934245486524   -2.94370862935255
H           0.14003348646131   -0.81047116969331   -2.56667438455061
H          -0.01252555543449    0.38857096297818   -3.55881782829148
O           1.28617297747461    1.39830712449013   -0.87774559163289
H           1.09174081063348    0.90100713596220   -1.72865187516385
H           1.56881403460656    0.73036996723790   -0.23809593501203
O          -0.68167073418440   -1.97548870293608   -1.81279215737340
H          -1.27030867447828   -1.54205523193523   -1.17539247809934
H          -0.01758205087346   -2.43786060114920   -1.25575982966448
N           1.09262831666709   -2.80592639133737    0.09357009569714
H           0.91520873830016   -1.94256838501353    0.60259709541807
H           2.09277607483760   -2.89104441844097   -0.03750690943107
H           0.79246538458877   -3.57349163835705    0.68106107120490
