    23
        -45.37659506  Gyration_radius:  2.38102653235 Dipole_moment: 5.591
 S           0.92050600080598    0.57991660556731    1.01669508869491
O           1.67149838080945    0.39458540784026    2.22481932286875
O           0.88666302524006   -0.62735878407738    0.17454562090789
O           1.65506382519142    1.66309485211404    0.11169335662744
O          -0.42479635530389    1.10506901116561    1.20861654369905
H          -1.33337020688513    1.04395781099540   -0.01988865999313
H           2.57898759691976    1.33855854346457    0.11583892521336
O           0.45075979195592    0.38996207236625   -2.19865539497004
H           0.67797672542658   -0.13233962809061   -1.39190549350616
H           1.03353795720259    1.15348849649668   -2.16573621705925
O          -2.91792402261027   -1.50911116885368   -0.47429394475692
H          -2.69928067371138   -2.22574844421552   -1.07281795566177
H          -2.36720573953922   -1.65934289201575    0.33637680636868
O          -1.16734682747295   -1.68754071638699    1.49724496768566
H          -1.26703958247306   -0.98099008695332    2.14039357839415
H          -0.35374699941824   -1.46238887239738    1.00365974046877
O           3.70862846814061    0.06633817066804    0.56383747419627
H           3.43215866325057   -0.75177090800915    0.14151463679869
H           3.23959752363666    0.08293607944968    1.41892231747035
N          -1.83810036799355    0.87056669113134   -0.94952378288259
H          -1.06290459663307    0.74418475373171   -1.65057831710894
H          -2.45356427342096    1.64148763728989   -1.18319906457292
H          -2.37009834308624   -0.03755462126519   -0.84755953887534
