    23
        -45.37659504  Gyration_radius:  2.38158101055 Dipole_moment: 5.588
 S          -0.89717395830407   -0.64540503630216   -0.99855822337889
O          -1.20051159985725   -0.90021625979540   -2.37729433708574
O           0.55003776884483   -0.61641115737801   -0.72851317594488
O          -1.43105197382139   -1.85855877612978   -0.11807775847156
O          -1.54373033727931    0.53417137313049   -0.43918015587463
H          -1.02182605661890    0.98238056308533    0.92656853029256
H          -1.07837832737649   -2.63251900958774   -0.60349914380135
O           1.36132756108459    2.86788252500777    0.97581427396441
H           2.27947596184432    2.63673713983952    1.12812259065954
H           1.18664773350825    2.65847264398052    0.02256225677083
O           0.79650763649290    1.93958997923347   -1.43306099853127
H          -0.12240371900713    2.08210660563727   -1.67404137338133
H           0.86092106112855    0.98083692183337   -1.25128622557449
O          -0.05240429388724   -3.23834030039955   -1.89751924616377
H          -0.46747724842988   -2.53210996279997   -2.42720250333149
H           0.84818687617103   -2.94017556896547   -1.74249229417191
O           0.62844296120170   -1.21725477365331    1.81898052323907
H           0.76625438222519   -1.04562127837667    0.85623781960130
H          -0.03335084360890   -1.91358973617796    1.84906649858871
N          -0.49994574881808    1.18205867547251    1.84133493323507
H           0.23609395066980    1.90960182623441    1.62485187015773
H          -0.03020127210267    0.27082302946345    2.08086539043777
H          -1.13544050412061    1.49554057665512    2.56632075878492
