    23
        -45.36630952  Gyration_radius:  2.30496525894 Dipole_moment: 2.685
 S           0.15091226024797    1.25528366404667   -0.82504442945617
O          -0.48923182177091    0.01155097328697   -1.18762175430706
O           1.20175290100509    1.67806967364956   -1.68886629380175
O           0.65547627920890    1.11928689058627    0.63407458876365
O          -0.89664756786911    2.36523148678350   -0.70196397459209
H          -1.69709557950700    2.00094033726780   -0.19642411153965
H           1.22278672781223    0.23356801693319    0.72481162553146
O          -0.80098322254847   -1.91442939338813    0.54996550583013
H          -0.74780472728333   -1.22282558871471   -0.15366003398625
H          -1.46049729958222   -2.54514047394306    0.25740574994689
O          -1.30899038852755    0.07746662322868    2.35589984423250
H          -1.19058042260418   -0.77437589445409    1.89595013450566
H          -0.49544112805423    0.56894811537711    2.18469010386169
O           1.83400533442649   -1.07536192357717    0.73551762745163
H           2.13179893764021   -1.13642841776539   -0.22134672795621
H           1.06540211329069   -1.66111106842971    0.81756469714559
O          -2.81911336584643    1.45289870495963    0.71091340892817
H          -3.23479810835713    2.17257402770771    1.19084780967821
H          -2.34636105341963    0.89555701622355    1.38822811704899
N           2.31657086430406   -0.95524483988667   -1.85311992863795
H           3.21503586151229   -1.09995048621164   -2.29721998197517
H           2.07191135273702    0.02976514018115   -1.94654306662314
H           1.62189204318026   -1.47627256385709   -2.37405889013749
