    23
        -45.36860144  Gyration_radius:  2.27470131707 Dipole_moment: 3.531
 S          -1.13165680121513    1.54672726411533   -0.09523038998692
O          -0.91449056957720    1.91819282049593   -1.49303146551562
O           0.07570319997701    1.62343517548189    0.70110547624772
O          -1.79656943936226    0.26116153220829    0.01839504416076
O          -2.11995105731823    2.63665592361339    0.48513646815883
H          -2.76668727767457    2.71501263199660   -0.20899470585865
H          -1.14266919391852   -1.00460998676449   -0.84465635027866
O          -0.53624019171556   -1.59660217428045   -1.35017695665191
H           0.11682760886278   -1.91654598838647   -0.69769061574334
H           0.18457498985248   -0.60062001594677   -2.14824318006554
O           0.70022459126236    0.27408194047966   -2.45095898380105
H           0.03522699563791    1.02825284838557   -2.19524173653148
H           1.45590778580138    0.36655352872623   -1.72511325665137
O           1.33273360859168   -1.94765179177361    0.60187308844004
H           1.76013288253459   -2.70666645279718    0.99961157538745
H           0.75011073522496   -1.52705407104085    1.31082199298919
O           2.16900737175320    0.43968214762928   -0.42567009113078
H           1.54240182722678    1.00536853847150    0.07587318343641
H           2.07908866455097   -0.45089308924441   -0.03486739189617
N          -0.26194713369482   -0.70280537501854    2.27363565418441
H          -1.21362525449200   -0.94587718902441    2.02313173924124
H          -0.11526002706241    0.23482843962865    1.89732427067298
H          -0.20284333526461   -0.65062664694765    3.28296664117822
