    23
        -45.36860149  Gyration_radius:  2.27468928361 Dipole_moment: 3.519
 S          -0.09742694717155    0.59143369733438   -1.82280978108090
O           0.70830866997133   -0.57270694448602   -1.51759036013657
O           0.64876028687493    1.84419530646083   -1.70966809619105
O          -1.33125578330238    0.63392032922489   -1.05902151297097
O          -0.49617207494862    0.47161168335417   -3.34872806963730
H          -0.78680516590348    1.35484288750828   -3.55281478406513
H          -1.21874245960902    1.12434960496712    0.52868768953084
O           2.10465267940114   -0.33902428813254    0.72933971653951
H           1.46643295191219   -0.73124190019475    1.35613949203838
H           1.75124561685513   -0.54825166323710   -0.16255176239648
O           1.37336366450368    2.05840524654253    0.66887129664983
H           1.83894742767245    1.12041483985638    0.76834534557974
H           1.15212555211881    2.10479372105572   -0.34373543629745
O          -0.08347357791814   -1.16212131067644    2.13907099940585
H          -0.53223653775223   -1.59013661291257    1.34243385804506
H          -0.23307782426682   -1.73578631783407    2.89103813844102
O          -0.89415482563892    1.34275629590999    1.43462152575406
H           0.42136210774085    1.89960590148117    1.10594162150250
H          -0.70480106815302    0.48213397742310    1.85649319770738
N          -1.19042964392078   -2.07642819874834   -0.05756780452509
H          -0.48578844653457   -1.71522327286118   -0.70197429007797
H          -2.02111533069989   -1.52199099264126   -0.23132610895460
H          -1.38971927121651   -3.03555199940398   -0.31319487485962
