    23
        -45.37886225  Gyration_radius:  2.27358402959 Dipole_moment: 5.388
 S          -0.28167554140675   -1.81305516356785    0.21210897223826
O          -1.21375996240302   -0.89250248512057    0.84155281806329
O           0.95822831900187   -1.94228553181635    0.96871422387503
O          -0.03507999929694   -1.50961842411314   -1.18414783401928
O          -0.98656688972156   -3.22821983589806    0.25599834283855
H          -0.35545948222026   -3.79727490753434   -0.17339955685452
H           0.94510588576439   -0.15159549576398   -1.63964526244381
O           1.41699401103076    0.70468156350897   -1.58667948839366
H           1.88147818132281    0.63608316714562   -0.17718829311048
H           0.69731370104134    1.38652815694619   -1.53202922066727
O          -0.65609560956684    2.22466874450239   -1.00084919700672
H          -0.63880837948606    2.20839220604579   -0.03488595713382
H          -1.36935105595006    1.60179140898519   -1.25751141691397
O          -0.41087210723197    1.42833141768425    1.74075312755315
H          -0.93484578999139    1.67930276768108    2.50286400274560
H          -0.76569619358942    0.55523629585045    1.44034814583562
O          -2.27704245320302    0.10182392341763   -1.41926608831372
H          -1.71854987013127   -0.44418335446880   -1.98281962930081
H          -2.12363883698661   -0.25615148134613   -0.52815883525203
N           1.98176003140602    0.44461309259330    0.90061504694491
H           2.92034119465760    0.61095623456754    1.24533941286232
H           1.68622947022219   -0.56978634140252    1.01710422065672
H           1.27999138673966    1.02226403210586    1.39118247579734
