    23
        -45.37886225  Gyration_radius:  2.27368278046 Dipole_moment: 5.387
 S          -1.19629985960913    1.27544708893629   -0.59589907738279
O           0.12867925596481    1.71081269331960   -0.18689688347208
O          -2.06887701370031    1.02575939383861    0.54556169672693
O          -1.16999546481477    0.15328811420973   -1.51367518758338
O          -1.82138115209183    2.49663269509193   -1.38291476025711
H          -2.67716943694028    2.17017371690214   -1.64279845922168
H          -0.78006464224673   -1.44336097149820   -0.95541678239503
O           1.49876841277341    0.51414608942092   -2.16724457019583
H           1.15582093297061    1.12944541039389   -1.49675139826215
H           0.70325015964722    0.14256578510543   -2.56302115213707
O          -0.42881077373304   -2.16413042412807   -0.39347162528688
H          -0.73320259459800   -1.59527286051238    0.94505145109050
H           0.55769812467535   -2.06223693141755   -0.43949997677316
O           2.08861093541349   -1.38223993433512   -0.33297965433830
H           2.06421332823349   -0.75814626428574   -1.08963349234558
H           2.09764147635641   -0.82523875315538    0.45651893345510
O           1.41401444365851    0.48553250947950    1.73294634387313
H           0.96591166095785    1.00055327870530    1.01711338073525
H           1.96852775183964    1.11078380236596    2.20190080624106
N          -0.90772164158362   -0.92939601257118    1.80194245362773
H           0.00238280884354   -0.52921805051964    2.08211281669521
H          -1.37381441111285   -1.39290342035022    2.57353687081077
H          -1.48818233088555   -0.13299694501192    1.40351826639185
