    23
        -45.36410765  Gyration_radius:  2.40977058427 Dipole_moment: 2.356
 S           0.42526224378355   -0.70747197225370    0.53849016862701
O           0.58236790597848   -1.48022852070326   -0.65192307026055
O          -0.86263106900196   -0.06325973528370    0.68420676497080
O           1.51437861952128    0.38371882709303    0.61150348985530
O           0.70332126656443   -1.58048594009751    1.75852105623037
H           0.63897627311553   -1.02614687042493    2.61445413449697
H           1.66276855112840    0.69778592123726   -0.36348248896006
O          -1.00419000613616    1.11288213141742   -1.80236218548961
H          -1.23511989341440    0.34216167536605   -2.36849261540716
H          -1.16737805783205    0.80783550123875   -0.89725055526563
O           0.42116376825190   -0.11744208147985    3.81908043963721
H          -0.36282684815089   -0.39133728118819    4.30108003097712
H           0.20239876792239    0.75605158913647    3.39928337376487
O          -0.26365508342252    1.93882531728770    2.33927500713215
H           0.50542995975010    2.31832492149236    1.90677521422087
H          -0.65811959444932    1.32218420000803    1.69191691166055
O           1.58580936797249    0.95791067273898   -1.82349743017631
H           0.60810339657391    1.16640762798195   -1.91914539265324
H           1.69729997936450    0.07948310543043   -2.19922022584263
N          -1.27662603416896   -1.35524131241146   -2.91513182085247
H          -0.63611735609146   -1.64898030351568   -2.18004324738781
H          -0.91767055630365   -1.69852459434361   -3.79739842946778
H          -2.16294559081770   -1.81445288858841   -2.74663911987090
