    23
        -45.36616270  Gyration_radius:  2.3285934743 Dipole_moment: 3.088
 S           1.27415720305910   -0.78650009120637   -0.63207630883214
O           2.68918067034673   -0.51381342059180   -0.65312304856440
O           0.46216324765464    0.16302813309603   -1.37379025545651
O           0.74045140077066   -0.99043613919297    0.71294812154580
O           1.11080945317694   -2.19314050415847   -1.37600506027154
H           2.01119113478841   -2.42956587682690   -1.57808156405343
H          -0.16567215201119   -0.01117826923888    1.38293757237693
O           0.19343260041097    2.36679735844636    0.03978533129583
H           0.23552901335285    1.69479164927649   -0.67783869073105
H           1.12039805569942    2.41202143353489    0.36157595627776
O          -0.76938468033397    0.76883130061177    1.68383040003627
H          -0.42043318049342    1.56673118483323    1.05740299261315
H          -1.72417261710276    0.53503080680474    1.35006060018200
O          -2.98569608661830    0.16962922249482    0.61757822492957
H          -3.25197761258784    0.87158301285491    0.02010462816607
H          -2.61628022224318   -0.57415761879634    0.04211030761213
O           2.59813945615692    1.64019859316705    0.89583207593841
H           2.70533257074425    1.27854323748981    1.77762735375934
H           2.76582868983238    0.89855304655722    0.27963350489726
N          -1.70167972354245   -1.57621004581881   -0.84996186765181
H          -1.16336435278169   -2.16284196481937   -0.22258796260031
H          -1.02119586342526   -0.95582383010073   -1.28582089374677
H          -2.08675701485299   -2.17207120842108   -1.57214141768831
