    23
        -45.36427125  Gyration_radius:  2.34781131222 Dipole_moment: 5.198
 S           1.01506815034159    0.18677839774672   -1.45592897536370
O           0.55496468114201    0.47350251730883   -2.77172626950556
O           0.42505105610433   -1.00321862763535   -0.84965945445647
O           0.77930651975659    1.34874712445498   -0.49782694790280
O           2.54369458530169    0.02058240492920   -1.46538075366997
H           2.86019273727525   -0.38315537540302   -0.60322034563267
H          -0.33089342588926    1.54714649569466   -0.41124099614990
O           0.75332881299898   -0.39838904626831    1.68249779351396
H           0.87836184443987    0.54818027098812    1.54918088780102
H           0.51421942231495   -0.74051646423323    0.79112202191104
O          -1.92853906238260   -0.36737396270367   -2.03964443675637
H          -1.26961139864867   -0.91772893330398   -1.58735522915417
H          -1.44745475615828   -0.01900775909652   -2.80130153656116
O           3.16923737744067   -1.13648005733753    0.77353433339188
H           3.14873617907646   -2.08028919493514    0.59967973982854
H           2.38273567566873   -0.93559946925560    1.32746123857718
O          -1.64900450723791    1.59043662391227   -0.29882076051759
H          -1.87171495543009    1.14004110209487    0.57649998540927
H          -1.94298617254244    0.95303871963266   -1.00025780165325
N          -2.12706507925774    0.21146352317266    1.91139315713983
H          -2.48081249123273    0.69851752791525    2.72446889206369
H          -1.21935954651590   -0.18465409072654    2.14492389260720
H          -2.75745565658781   -0.55202171694314    1.70160155507018
