    23
        -45.35972332  Gyration_radius:  2.31435822691 Dipole_moment: 2.544
 S          -1.41815383196215   -0.79812803956676   -0.76450544927600
O          -2.55555290001639   -0.38282481789084   -1.51597633832792
O          -1.18531196414238   -0.04551490588962    0.44531730288594
O          -0.13712450068350   -0.71340270387770   -1.65796566883797
O          -1.46062452210450   -2.29143442817233   -0.46197518672750
H          -0.53087866257384   -2.48798176827125   -0.08361454248386
H           0.27812255403248    0.19117679160403   -1.61745534277302
O           0.79710447253956    1.70291036540503   -1.48974361992954
H          -0.08325310531634    2.08667448585136   -1.24250467369244
H           1.05167562635737    2.10281036853993   -2.32419039395092
O          -1.71174088059236    2.21752045477983   -0.86553185607473
H          -1.63866103751947    1.63322503332691   -0.09230311840502
H          -2.30826286590281    1.73714892057281   -1.45277476472706
O           2.09086268467652   -0.21275957961279    0.48831736351081
H           1.82364807137081    0.46077028955794   -0.14502389033802
H           1.71065183324502    0.07573288328316    1.35269583945757
O           0.93925822161451   -2.57963021032643    0.30232687173376
H           1.36757953597207   -1.68133523525494    0.38704763694645
H           1.39900055433996   -3.01723394850024   -0.41777683677835
N           0.62856994736612    0.47673850898460    2.65188465607826
H           0.58094253798531   -0.18964094597838    3.41198744349900
H          -0.17248449865500    0.31071475795608    2.04656054622967
H           0.53463273998810    1.40446370374402    3.04520404191641
