    23
        -45.37862745  Gyration_radius:  2.28693310146 Dipole_moment: 3.442
 S          -0.89084284818888    1.47537539542049    0.63264795079609
O          -1.59102932468637    0.74780690226022   -0.40947261062362
O           0.11176337228832    2.39825834053490    0.15507886932851
O          -0.37667837478315    0.57412416798204    1.66549926358269
O          -2.00139223400729    2.35760250549995    1.34833445191390
H          -1.49102424599740    3.03262022383188    1.78421440821056
H           1.19408324915559   -0.19670457317002    1.27864224709631
O           2.03548348528345    1.22692868354942   -1.18488616829530
H           2.64648768923944    1.88256589249315   -1.52431751298930
H           1.33458748956106    1.72436448172950   -0.70062775365189
O           1.90683436305567   -0.68224216233866    0.82965889195363
H           2.21075444441952   -0.08915026924290    0.12547832698450
H           1.16919969366230   -2.00436621366487    0.02359931193011
O           0.47989559193984   -2.47811267170210   -0.50297109459161
H           0.36942176096066   -1.91005991184586   -1.30460549101822
H          -0.71467052334123   -2.10295901270832    0.24356310554624
O           0.09036316913516   -0.47394008327617   -2.19447003920572
H           0.89157992720148    0.06034350340680   -2.07983034680227
H          -0.60465225189589    0.01635766685566   -1.72428679900853
N          -1.53414451627794   -1.56923762195897    0.77638534075948
H          -1.94484442632843   -0.89305822391081    0.10569298046782
H          -1.07310642332150   -0.91465634376992    1.45155171936910
H          -2.21806905707779   -2.18186065595581    1.20512093821909
