    23
        -45.36866910  Gyration_radius:  2.27740343023 Dipole_moment: 3.008
 S          -0.02122726590442    0.84268630425147    0.18261345005318
O          -0.63692902459027    1.63220653347576   -0.86812860577029
O           1.40506433023645    0.67164238608047   -0.00205553054447
O          -0.68992030862158   -0.47894936365197    0.28633866687399
O          -0.24276261569787    1.53116630098455    1.55636000267312
H          -1.23456306112103    1.69989271884459    1.56691508046774
H          -0.22132125483294   -1.39398806274762   -0.78606516717090
O           2.39140716975909   -1.75681450087499   -0.09289408559043
H           2.30811484436291   -0.77627400541180   -0.05964131308752
H           2.03542949978339   -2.02992015929750    0.78055143522932
O           0.35973918919193   -1.84455649538444   -1.52071081297749
H           0.50320459646435   -1.07095052120265   -2.17936963914584
H           1.29652951290325   -1.95951426767446   -0.98824998789040
O           0.88661299333631   -1.64587843264262    2.11692547874264
H           0.18472067695571   -1.27083484058650    1.55063989584856
H           1.16321426095836   -0.93232894363612    2.69491929984141
O           0.68033488566242    0.36210089650534   -2.76420088983271
H           0.10416964486843    0.92193284884142   -2.19246129253425
H           1.57371857080186    0.67216906980413   -2.59030479436346
N          -2.76506966378242    1.73123326282464    1.00179220069501
H          -3.46935163477099    2.43438268185426    1.18425275380200
H          -3.19247988490790    0.81675928919263    1.07055821389905
H          -2.41863544107093    1.84383730038308    0.05221561079424
