    23
        -45.36755091  Gyration_radius:  2.30743583699 Dipole_moment: 2.966
 S          -0.69726848742145   -0.73901980481763    1.57044724921734
O          -1.65794842862646    0.16458990029702    0.95412676415495
O           0.66984322955839   -0.24765536230742    1.35611642040687
O          -0.85615416119820   -2.12243254216187    1.22218113807920
O          -0.93520673299034   -0.65152628614570    3.14127339604949
H          -1.18391969291880   -1.54588362451662    3.35300748427636
H          -0.92046296176701   -1.94767472396885   -0.93231379559736
O           1.27606560894359   -0.15073287256572   -2.11018352355853
H           1.81004464438376   -0.82622881890154   -1.64730809050397
H           1.28989489304788    0.93276598241777   -1.15422305100061
O          -1.08950914057249   -1.08544809519874   -1.32900845022944
H           0.35342357227453   -0.48902181477876   -2.02391192131271
H          -1.44845131274295   -0.56767051740265   -0.58703102707820
O           2.18711750578499   -1.80750872777639   -0.21242204833246
H           1.59644975064417   -1.36990049528545    0.43226295685285
H           2.97981815482891   -2.04953238907013    0.26724781729727
O           1.17423933023799    1.58743802497168   -0.32208939173194
H           0.20571683491196    2.05811911768238   -0.44766929427813
H           1.03095639265331    0.93583284690181    0.44512173629552
N          -1.18423394485688    2.46140284116384   -0.51114483949109
H          -1.57046872095507    1.72485338101265    0.09013354939522
H          -1.59999441807911    2.37207255735371   -1.42944709012157
H          -1.42995191513792    3.36316142308569   -0.12516599879609
