    23
        -45.36962552  Gyration_radius:  2.29310952305 Dipole_moment: 1.350
 S           0.75802771693093    0.90279429757321    1.36142671020895
O          -0.60633620160422    0.53266771923756    1.68794251642890
O           0.84582313007567    1.98743588641463    0.40456475431867
O           1.56004291380616   -0.24763926744162    0.95876357853659
O           1.40189563788247    1.42170505419688    2.71201041871104
H           2.31215579599031    1.55068582377731    2.46567073564444
H           0.98070687279215   -1.38362622696158    0.15451400719631
O          -0.27397809445069   -0.52273957193605   -2.24239323988706
H           0.52448216927003    0.04266039447274   -2.33532395621959
H          -0.92295758657565    0.04818775642754   -1.76897339155914
O          -1.64194738383512    1.15679305964995   -0.67555508809070
H          -1.22765754764943    2.00809926032283   -0.84011742852139
H          -1.37696348440256    0.93966324780242    0.23992546038362
O           0.41462620224154   -2.04279130591347   -0.38633640490529
H          -0.48483552474322   -2.12902850515049    0.18698242304370
H           0.14191145857958   -1.48953216857224   -1.24980569133732
O           1.72563525088475    1.21070175460440   -1.95923311200016
H           1.89293816016775    2.01924246707796   -2.44567801446976
H           1.47230085532660    1.48304882917992   -1.04910483495388
N          -1.68118358610143   -1.95910732551682    1.03453557977507
H          -2.53490350179824   -1.80915901508653    0.51184033320956
H          -1.42337519095842   -1.07292003544053    1.47974800318835
H          -1.85640806182827   -2.64714212871846    1.75459664129696
