    23
        -45.37030079  Gyration_radius:  2.26580047588 Dipole_moment: 2.655
 S          -0.47951983310409    1.66298026953082    0.64085083194796
O          -1.51946158805243    0.62776135022681    0.63838149973971
O           0.33882767364960    1.59585395746448   -0.55071013921425
O           0.27393390482090    1.65823391196406    1.87645337995871
O          -1.24088706446128    3.04857094493940    0.59004707966347
H          -1.40610653220326    3.20637681959677    1.51378317179527
H           1.10693416440106    0.24321795020593    2.18404273194232
O          -0.65353026574351   -1.68322749913510    1.19376665005810
H          -1.12700451544003   -0.79306836120393    1.03125814072963
H          -0.33318818480619   -1.99460044485753    0.20266867736376
O           1.46680132454164   -0.66863410119139    2.08119269937162
H           1.98682577546368   -0.64023273525448    1.25932938231217
H           0.22807345980025   -1.39723403545447    1.68015931824201
O           0.17292495142481   -2.11300074226266   -1.10918616409805
H           1.01943528280181   -1.63433566152183   -1.04474230918717
H          -0.43765505393864   -1.49144028147312   -1.61185321558288
O           2.12701224516747   -0.28686440504107   -0.54937589985242
H           2.91323170335335    0.03228059758426   -0.99447998244047
H           1.47230054850422    0.45826645447715   -0.57857722622136
N          -1.34978822477216   -0.20382335976714   -2.09299142229339
H          -2.18223435838675   -0.29735607803018   -2.66091469839090
H          -0.75511607798244    0.49976385867237   -2.51439065623174
H          -1.62180933502285    0.17051160051619   -1.18471184961421
