    23
        -45.36364064  Gyration_radius:  2.37512789868 Dipole_moment: 4.484
 S           0.30584986285329    0.83042715395003    1.22726793008658
O           1.58593926483282    0.35380629962721    0.75847779319166
O           0.27750574056882    1.47997148695550    2.49450655664729
O          -0.62003370463784   -0.42420670809645    1.25961521925288
O          -0.32986071194254    1.74395913219763    0.18751685999929
H          -0.18812359687889    1.41438550832362   -0.82188892863849
H          -1.49082389651529   -0.05383135104960    1.62818410696781
O           2.59637728441943    0.19764594495225   -1.75394060947771
H           2.70165358753523   -0.75703654385568   -1.78515097323238
H           2.48503243870896    0.41241198201186   -0.81287781911104
O          -0.63279451686544   -1.66233799101694   -1.99950940431678
H          -0.43169909806012   -2.21036320436589   -2.75992172982288
H           0.01638404028284   -1.90117033874823   -1.30005291535988
O           1.22933352459193   -2.15256321057995   -0.12310119312085
H           1.40604891516830   -1.25913474709371    0.23508588671127
H           0.78093022714524   -2.61847894938069    0.58527452463317
O           0.04131338188858    0.90787402704205   -2.12054300047518
H          -0.35541730567133    0.00479306546864   -2.13412716401236
H           1.01551907102689    0.76496001907049   -2.15844209396698
N          -2.50682114183361    1.00863892537406    2.24531561584851
H          -3.20794708577795    0.79623358316963    2.94324301680159
H          -2.92576995455531    1.58666737188816    1.52831094115504
H          -1.75259634629959    1.53734853415894    2.67675739026431
