    23
        -45.35429707  Gyration_radius:  2.40271461304 Dipole_moment: 3.188
 S          -1.50933657478380    0.80999870123194    0.73392352832049
O          -1.30056637024830   -0.59779108563732    0.64690183362676
O          -0.70444827837471    1.63747583607541   -0.11753944973635
O          -1.43863363364125    1.28175839987386    2.18089416803912
O          -3.01318495904440    1.09263419708612    0.36871633476156
H          -3.13268010297131    2.04008199324034    0.33876708818939
H          -0.79305143721931    0.61454414694071    2.68576836933990
O          -0.04761162197803   -1.90276777597675   -1.48021743884903
H          -0.06689324950688   -1.15075903842782   -2.11085440636823
H          -0.59088949086416   -1.61506568303260   -0.73353026392842
O           1.57471257188602    0.57355851431436    1.09634430644919
H           0.95955788220784    1.09058144825990    0.56336678637673
H           1.95218416062794   -0.11244091781084    0.49574629769469
O           0.16622476824748   -0.40680027009584    3.02830118505539
H          -0.20121824384526   -1.18775956939281    2.59967796153668
H           0.87735478688388   -0.07073232724043    2.40746570751339
O           2.36478092119533   -1.39092504578425   -0.52625947044761
H           1.49799978505290   -1.65013376463649   -0.93372850540481
H           2.73268774253375   -2.18909806358119   -0.14545907372741
N           0.11228025502737    0.51593398272320   -2.74751388266875
H          -0.37065353451122    0.90361666834908   -3.54791464509033
H           1.10407727848408    0.67447181318789   -2.87857008306300
H          -0.17269265516607    1.03961785033898   -1.92428635762160
