    23
        -45.35429706  Gyration_radius:  2.40266656214 Dipole_moment: 3.189
 S          -1.39610844045244    0.08653942176483    1.23106361024387
O          -1.72469451627049    0.45194082841543   -0.11655225942498
O          -0.01134540960006    0.05371538041027    1.56922030964184
O          -2.08390809939182   -1.21347974498193    1.62863004222558
O          -2.09363117125142    1.13115124962812    2.17831818209771
H          -3.00140751419964    1.22139406696398    1.89441847066827
H          -1.34774000248560   -1.97067260452399    1.58688197109191
O          -0.20789481590532   -1.71419571518133   -1.01457084637075
H           0.66713114373242   -1.37345251702582   -1.31808599933546
H          -0.78967067686013   -0.94777183925628   -0.95187468622028
O           2.18095789009436   -0.68484106706953   -1.60545522208919
H           2.20536731639077    0.08808670269045   -0.98373355012282
H           2.96756153073613   -1.20066491986336   -1.42486833557686
O          -0.14861130993758   -2.73843921850801    1.35690272555173
H          -0.09992580998588   -2.53319705578661    0.37728217768158
H           0.52950754690688   -2.19120684298341    1.76840560376074
O           2.02126604170990    1.30929456832071    0.12350487102969
H           1.44216249194062    1.87598856396065   -0.43063671544983
H           1.43000507467925    0.91741080255195    0.78099004644192
N           0.08778845751573    2.35926035839543   -1.50173704767952
H           0.30050074849808    1.99973818150610   -2.42443507483565
H          -0.27879468710653    3.29602249273441   -1.61232282398442
H          -0.64851574874504    1.77737888783374   -1.11134545934613
