    23
        -45.36642807  Gyration_radius:  2.32304743615 Dipole_moment: 3.563
 S           0.26706617059777    0.54550371760909    1.21606252569733
O          -0.31794806087591    1.13293019622689    0.02992665042644
O           1.69824285744442    0.45438214726938    1.18167602100137
O          -0.35870825960593   -0.83551888658062    1.43446515597791
O          -0.18170614976450    1.32299781593319    2.45149422666685
H          -1.20438106663462    1.36203042319800    2.33363762424481
H          -0.14260471763968   -1.49837490510221    0.62454982269582
O           0.18607686914377   -2.21910805780783   -0.55629567249325
H           1.12459996252548   -2.00326735453415   -0.72472329562912
H          -0.33697904532528   -1.72073906025125   -1.24162097637361
O           1.36531126719052    0.82966335299178   -2.32283911184933
H           2.00819198635948    0.19126791940324   -1.98884852065173
H           0.97786505684043    1.24578532026505   -1.54262211386566
O           2.66551644561080   -1.11343763359611   -0.70445194434263
H           2.42096831129437   -0.50591294208243    0.02825445975264
H           3.51814537415711   -1.48805729206140   -0.47670473086810
O          -1.02305434413373   -0.46260475988006   -2.08845161028066
H          -0.29003303688749   -0.13595312803882   -2.63877709046320
H          -1.03986771763553    0.17122176523579   -1.35341905320815
N          -2.63207127035973    1.22481775989442    1.73694540054119
H          -3.37960549519723    1.85695451764912    1.99161141566474
H          -2.95074363939127    0.27045412935503    1.84258587415004
H          -2.37428147773071    1.37496497494403    0.76754496319379
