    23
        -45.37137310  Gyration_radius:  2.42276334393 Dipole_moment: 4.861
 S          -0.62575130939557   -1.02785570753459    0.25322887880005
O           0.56225909934896   -0.54265027471833    0.94072595861640
O          -0.50600903796511   -0.89795214458726   -1.19055152450081
O          -1.83278375407778   -0.34609940599055    0.74639042410972
O          -0.78941502942954   -2.55122309644804    0.56241259632664
H          -1.15425332690773   -2.60480994946118    1.47165269837333
H          -1.79898482122021    1.08981014563416   -0.15605493399447
O           2.69206746241697    1.54755007400691   -1.49003604362667
H           3.62121155674556    1.70820476182776   -1.31903510455804
H           2.57374492977775    0.56510513895581   -1.44560451319477
O          -2.13111982347450   -2.00949748197502    2.77928577051593
H          -2.14082808408187   -1.20552782818555    2.22282825449811
H          -3.03336141340146   -2.33643377658362    2.80330794907474
O           2.21902566731626   -1.03547493120900   -1.10137159211970
H           1.42091915376791   -1.23293274855140   -1.60897319736716
H           1.87591720109526   -0.95213150545025   -0.19316122756288
O           0.89683686760710    2.05470592259969    0.39235733854491
H           1.61847777557302    2.00025092485013   -0.28215339744320
H           0.86433598839597    1.16097023331800    0.79736160430832
N          -1.25565691702505    1.58660917537630   -0.90048964403029
H          -0.35045871469144    1.96829890595518   -0.39066947198045
H          -1.78689126877712    2.28152657924313   -1.41390244800501
H          -0.93928219160621    0.77955701893255   -1.47754838478910
