    23
        -45.35999006  Gyration_radius:  2.43164040677 Dipole_moment: 6.607
 S           0.98859955390837    1.76401634772853    0.02267700507527
O           1.90027810913741    0.95646650601505   -0.75116413706471
O           0.67950652328124    1.20101586461633    1.32587227817496
O          -0.24021279113148    2.07070917951657   -0.72307980777660
O           1.69496637187852    3.15494269847300    0.27501583679970
H           1.04255284563114    3.63147887421896    0.77860914038003
H          -0.76548165868853    0.84422342294360   -1.28760117198294
O          -0.98005782276506   -0.14928377506110   -1.54699452890910
H          -0.16690871379112   -0.44077811021526   -2.15795057353645
H          -0.83480771614029   -0.64413971492034   -0.63532659864546
O          -0.43591559394748   -1.06554473191924    0.73043781517016
H           0.03311805869498   -0.25210129312754    1.05097146729160
H          -1.25120636249196   -1.12159091751200    1.28831004568399
O           2.01530860356023   -1.79916508964941   -0.46564301003131
H           1.24836802933155   -1.92693949301172    0.10583067731751
H           2.26435988130720   -0.86759444633354   -0.35445224429786
O           1.14972144321372   -0.73248093568132   -2.74070075164182
H           1.61481389980390    0.07240743663283   -2.45770249965010
H           1.50461932597911   -1.41330161271732   -2.12303745816141
N          -2.65990309354913   -0.88557655993808    2.25618797272736
H          -2.46331211581236   -0.03254910274350    2.76541767607826
H          -2.83464715644099   -1.62153713205821    2.92849452133170
H          -3.50375960096813   -0.74267741525012    1.71582835567244
