    23
        -45.36423376  Gyration_radius:  2.30189070004 Dipole_moment: 5.303
 S           0.20132021202160    1.25238819096435    0.28322058957331
O           1.34062255308062    1.58879079537935   -0.51076901772463
O           0.40881850241428    0.15854043339391    1.21223498851026
O          -0.98919143075438    0.89435313858615   -0.61848557810555
O          -0.29795935302125    2.46691141297701    1.07206364069025
H          -1.13423338532362    2.10040725434648    1.55080782337935
H          -0.62000227604794    0.67198990750972   -1.58961411648482
O           0.92806853371297   -1.91600806687359   -1.80347106429404
H           0.22552443999351   -2.16142768402496   -1.17409340603150
H           1.69306610752815   -1.67456945267541   -1.24368420321887
O          -0.62523875750153   -2.21215867867469    0.45086925551803
H          -0.15718492133411   -2.86589795895032    0.97496202066220
H          -0.32050769379797   -1.34196533288432    0.76740744463393
O           2.65612777547953   -0.85934649655049    0.01995062352283
H           2.98275355911715   -0.03539883533684   -0.35201748894208
H           1.95146624455386   -0.58667834164161    0.62851371501382
O           0.15818955599228    0.36667480662791   -2.75048219572342
H           0.44574806314980   -0.57451869494296   -2.53543570756030
H           0.92389248876352    0.92596437609617   -2.57411993623063
N          -2.28200394447545    1.14992541789130    2.00931373257830
H          -3.09825314433826    1.47704114479071    2.50992473917415
H          -1.82386711466879    0.42672463123450    2.54920839432935
H          -2.56715601456289    0.74825803271561    1.12369575672700
