    23
        -45.36937705  Gyration_radius:  2.34041441005 Dipole_moment: 7.524
 S           1.09371627739176   -0.31872704196259   -0.03571645941502
O           1.10747555541493   -0.02048299703646    1.38483805597674
O           2.27427076574898    0.10615219481271   -0.74176058540609
O          -0.13687947209422    0.48439665098415   -0.65472714734006
O           0.71413678946672   -1.71373901698011   -0.30128499437653
H          -0.50335580651467   -1.78924591058333   -1.04152072183981
H           0.12831676973034    1.44589006417565   -0.59773409586526
O           0.70360998960813    2.92569641462087   -0.49126195888947
H           1.10598939903488    3.17612120595113   -1.32587343092852
H           1.46503868455165    2.77640213026715    0.13362786635349
O           2.74225164637689    2.09929946883606    0.93638814652680
H           2.88477059802842    1.41472713345069    0.25328678484871
H           2.30598284302801    1.60505345773290    1.64259286228161
O          -0.98704177136699   -1.44011563781143    2.02171668004964
H          -0.66582441862529   -2.30953402059801    1.77302262945762
H          -0.20557657535328   -0.85046655406061    1.90290636742883
O          -2.69245493082788   -0.38798096127435    0.32597535683595
H          -2.28644854762141    0.47605207342094    0.20064315996474
H          -2.18735246948952   -0.79213190043099    1.08119245698818
N          -1.49493119006562   -1.75736062750425   -1.53377342300091
H          -1.85303564783315   -2.69023930753952   -1.71009997441399
H          -1.40641084136964   -1.22933666634302   -2.39574979780696
H          -2.10624765737062   -1.21043016181159   -0.82668778754817
