    23
        -45.35942568  Gyration_radius:  2.41779989442 Dipole_moment: 2.229
 S          -0.81503855936211    0.34676593690661    1.07150870261891
O           0.26371414320643    1.30432574822558    1.01355567777736
O          -0.42642993925065   -0.99852598595990    1.36638203954751
O          -1.63377872924756    0.40602491455006   -0.20854192612591
O          -1.82707475059369    0.80137431702071    2.15250665154883
H          -1.90533314554678    1.77948749760064    2.03602009874810
H          -1.05952571919789    0.54160290497122   -1.09335022490591
O          -0.32869334295555    0.64458020906578   -2.30394290552784
H          -0.93420981148242    0.42954826635184   -3.01778779925354
H           0.35106832098647   -0.12076326460853   -2.27053467399584
O          -1.35683846422411    3.30386131894658    1.58567835922387
H          -1.02528656093246    3.87483316277619    2.28297203547961
H          -0.58518470976699    2.83677881159073    1.21186609411486
O          -0.60982778442178   -2.76998693162401   -0.65712822745857
H          -0.52466515446927   -3.64439954459604   -0.27332604286737
H          -0.61506508586231   -2.14333496544538    0.09057229881021
O           1.23171366394238   -1.35939677399304   -2.08213163094020
H           0.59201517096883   -2.00177017970816   -1.72155100426299
H           1.79138795952128   -1.10346832920043   -1.30904822597730
N           2.33458789677837   -0.61862019115524    0.26544372719230
H           1.78317289497757    0.21640816798203    0.44459378327790
H           3.29897902287100   -0.41074796471160    0.49426562255165
H           2.00031266402459   -1.31457712496130    0.92197756041758
