    23
        -45.37886225  Gyration_radius:  2.27360854625 Dipole_moment: 5.389
 S          -0.57905158389936    1.53817776743765    0.84322554310704
O           0.70392424564537    0.97977646367545    1.23629887718968
O          -1.69772847345892    0.81813868166150    1.44035967364933
O          -0.72682191997416    1.67334083569243   -0.59286979648918
O          -0.60962385693926    2.99981059145240    1.44658283286077
H          -1.45315994405461    3.33436099547631    1.15848835979596
H          -0.98864012019347    0.28114915225822   -1.59658395424049
O          -1.00710854861939   -0.65166798014187   -1.89339482510463
H          -1.37957793430037   -1.30410241125584   -0.61142181367439
H          -0.05183028493275   -0.90702719283508   -1.98293827496101
O           1.11186408842189   -1.60319132223930    1.19545815946958
H           1.73095190612465   -1.84412136962575    1.88612631268805
H           1.00660484068226   -0.62133149069851    1.25275211872878
O           1.56051792322556   -1.17496828575859   -1.60169335071476
H           1.89031657469376   -0.25270800930411   -1.54433504483207
H           1.58570707597213   -1.51133092193534   -0.69619722226273
O           1.99084315245643    1.44243877516506   -1.07921495544734
H           1.21481338529392    1.83862470401939   -1.48965666540429
H           1.73512444315751    1.35142671552830   -0.14539506661867
N          -1.50294079393849   -1.57436970929907    0.44680857349212
H          -1.70493331722280   -0.65110963667629    0.93338237507841
H          -0.58990385770309   -1.90687678612112    0.79690542997171
H          -2.23934699042986   -2.25443957647052    0.59731273370640
