    23
        -45.35489392  Gyration_radius:  2.40269785721 Dipole_moment: 3.166
 S          -1.06881587862618    0.35770723352210   -0.29952485472979
O          -0.52339780853156    0.14227747083103    1.01399299336975
O          -0.66289909387206   -0.56481853725815   -1.30704617991744
O          -0.72478119990924    1.79928857786830   -0.74238149080277
O          -2.61133854501859    0.39393859118487   -0.21702303011919
H          -2.82357776437345    1.16435725875929    0.36398092763021
H           0.19057256459194    1.71829704322058   -1.28278835587112
O           0.03913358475194   -2.35492051220205    2.04543020616573
H           0.31977961175953   -2.19175574465883    2.94764101350975
H          -0.23970448943066   -1.49487901322581    1.69267342108776
O           2.15841017210667    0.14923832389222    0.26460974726062
H           2.16229412137303   -0.80923143313142    0.00022829937690
H           1.34536863002190    0.24545736506399    0.77941993279978
O          -2.63486053899062    2.70617691809086    0.99013882981745
H          -1.75656662165693    2.79407495859435    0.59524121962032
H          -3.19376644903824    3.37783783732910    0.58987288081561
O           1.40758245446691    1.31084720667060   -1.89574581010177
H           1.13050029579038    0.54830438660254   -2.41496663405053
H           1.86960273066375    0.92381502617770   -1.08007745951713
N           1.58951790758084   -2.34772743520908   -0.47524555475683
H           2.02461463855177   -3.12372823777513   -0.95814518499902
H           0.78334548431649   -2.04797408048287   -1.01618734696186
H           1.21898619343358   -2.69658320386365    0.40590244039647
