    23
        -45.37539450  Gyration_radius:  2.27738917192 Dipole_moment: 4.499
 S           1.59116248750247    0.25548328217286    0.74419497616788
O           0.60352162046371    0.58904861898876    1.75547368787729
O           1.39378093155471    1.00808452169859   -0.48698027865185
O           1.70522606522061   -1.17139819584609    0.50435528080756
O           2.99533585228587    0.70571407034052    1.32328521416370
H           2.87868510528651    1.62538639283428    1.54329238871513
H          -0.50285208679199   -2.22024630195548    1.33629275469578
O          -1.22142293744217    1.57040976289767   -1.04911578051587
H          -1.61299677390582    1.80032876571620   -0.18368856048275
H          -0.26338192824618    1.53561801491282   -0.88498805761156
O          -1.87045962640848    1.71637978476844    1.58349500015431
H          -0.95392591976859    1.45607813353253    1.77846781850563
H          -2.40960498407699    0.95881449637418    1.82283663687029
O          -1.64630365797396   -0.99277939437443   -1.35673182762448
H          -0.26051743007156   -1.15975295896244   -1.79634805648398
H          -1.67486571302607    0.00257125887370   -1.34070553358476
O          -1.05199458339969   -1.43989316905913    1.23716692894148
H          -0.47412649415025   -0.69551002038122    1.49778613121146
H          -1.61515778445457   -1.24866919089133   -0.41006736524624
N           0.84143860203013   -1.11789682858063   -1.92827113564744
H           1.09929936333627   -0.12027311856750   -1.94858537232604
H           1.18339765872031   -1.63507574114864   -2.73038721177041
H           1.26576223332629   -1.42242218335797   -1.01077765820100
