    23
        -45.36540646  Gyration_radius:  2.32714032443 Dipole_moment: 2.698
 S           0.25233891270353   -1.27954538178321   -0.73179684605331
O          -1.04642849976963   -0.71497182767826   -0.44068273717103
O           0.53490450045927   -2.53106854852978   -0.11859796383416
O           1.33050754585491   -0.24604749598672   -0.31058129191159
O           0.43736503419583   -1.41056387691297   -2.24627161525362
H           0.37296269969066   -0.49263203703800   -2.67715424886623
H           0.93640582015767    0.61487074884840    0.03557533829281
O          -1.44697712798875    1.75008469082516   -1.40200577752092
H          -0.94118909949289    2.22184409239739   -0.72838182630570
H          -1.54674017148288    0.84637781044676   -1.04630313468127
O           0.33443546664284    1.87665314404156    0.75226617302884
H           0.99215885150492    2.29324178770418    1.31179393422246
H          -0.28709778969256    1.36315400275619    1.36563382757137
O           0.17077608024924    0.91072405438758   -3.26172403753931
H          -0.29652307242164    0.85636268348578   -4.09802524192994
H          -0.45062357685257    1.35363476279108   -2.61729566709299
O          -1.13060254119746    0.27992766152293    2.12521145788538
H          -0.46470302590655   -0.36765564642636    2.46974946569278
H          -1.49814636163069   -0.15416280814205    1.34175547500940
N           0.76031298211635   -1.57508859910681    2.59116021681947
H           0.69712632238968   -2.02922698739033    1.68049893931984
H           0.56589775708479   -2.27883345113923    3.29350687645291
H           1.72383926338677   -1.28707878907542    2.71166868386456
