    23
        -45.35754959  Gyration_radius:  2.36298934791 Dipole_moment: 1.854
 S          -0.69642467966314    0.90389872382665    1.15943283840869
O          -0.58052982134743    2.33072033092363    1.22125027176795
O           0.47517374774424    0.17650349141171    1.56609259308257
O          -1.05635573289996    0.49069664118232   -0.30680173587097
O          -1.91211400391266    0.43761778619409    1.93524426074088
H          -2.13531962031425   -0.55343830982893    1.66884952217130
H          -0.67582257896969    1.14357220372105   -0.93070059183823
O           1.01117604848593   -1.64455309005685   -1.89330266675790
H           1.40607059792432   -0.79153731646898   -1.59019542324236
H           1.74252976992977   -2.20049332244584   -2.16725263808649
O          -0.06242383545253    2.73093131895614   -1.32349971205817
H          -0.67846448241204    3.31842125010997   -1.76722630423477
H          -0.16027618276822    2.89028418280912   -0.36321749891123
O          -2.31825486465961   -1.94641644456955    1.30683322934463
H          -2.41154962402375   -2.47363525312108    2.10430521571145
H          -1.41525183376402   -2.18277830522882    0.91577474530869
O           0.10964724039903   -2.30893866407992    0.56278361484653
H           0.30595073097880   -2.16855926276617   -0.38923357405925
H           0.42076501141373   -1.49915261388616    1.00187070721021
N           2.10116740340018    0.61386847020486   -0.83213605665825
H           3.10051236424130    0.75642172955486   -0.75145619441545
H           1.72612903071172    0.52244578297867    0.10873570910443
H           1.70366531496903    1.45412066062385   -1.23615031161344
