    23
        -45.36078160  Gyration_radius:  2.49077672098 Dipole_moment: 4.765
 S           0.97705041142916   -0.41164139614122    0.65448089409538
O           0.12307365248506   -1.56920441390260    0.64205782799145
O           1.26527208519499    0.12709111304525    1.94855831959109
O           0.34147759668063    0.68168139548537   -0.23693442945883
O           2.28993766658750   -0.70625011663353   -0.07436691686669
H           2.07830539673219   -1.15680436130828   -0.95664167457653
H          -0.55061512924798    1.02834169376292    0.22864563789079
O          -2.23328491221998   -1.09595526264860    1.73312531981781
H          -1.34827319522306   -1.38131067707208    1.41655731631354
H          -2.86249398404224   -1.70726197494637    1.34624160811362
O          -1.72056161827068    1.39322261150421    0.95269455231475
H          -1.32874844804685    1.77757399254739    1.77418789123103
H          -2.09417675953345    0.52689217367762    1.23640271611617
O          -0.34906092439101    1.88109105353841    3.16555197898334
H          -0.68775246306856    1.40344474736451    3.92571597063385
H           0.37460587144888    1.32997590973411    2.80704813661412
O           1.82157484137159   -1.66029900408251   -2.39866789170972
H           2.63865633016488   -1.57882195092555   -2.89578147186160
H           1.18831156600455   -0.98029695285289   -2.76567393567067
N           0.19068286361422    0.31230880886314   -3.14398673616836
H           0.14244341141573    0.67056568613869   -2.19261197286847
H          -0.74663949266574    0.04744865367387   -3.41937562164954
H           0.49021522345144    1.06820825136702   -3.74722750899218
