    23
        -45.37088260  Gyration_radius:  2.38542217572 Dipole_moment: 4.159
 S           0.11806828514499    0.66445568352166   -1.62894859800319
O          -1.04884464792708    1.40787252882375   -2.04881561456104
O           1.03765291780197    0.30957509380888   -2.67540586817990
O          -0.48084769843672   -0.76281784787773   -1.10764781662606
O           0.74493300585691    1.22644456877715   -0.44080966969092
H          -0.91695540611975   -1.71453338566885    0.56026114353973
H          -0.68188221596661   -1.19554331783552   -1.93214014999733
O           1.90432484044171   -1.86931086229784    1.31234698998074
H           2.17305486312335   -1.39222950383751    0.49370848925846
H           2.36899395590895   -2.70701178781533    1.28942823952751
O           2.78129893741440   -0.59479520659871   -0.88417561038066
H           2.18404807313829   -0.36208517101659   -1.62236082198283
H           3.01405868242277    0.25371632807435   -0.49847485469586
O          -2.81837415035821    1.67940541598719   -0.15507756553707
H          -2.20239962806526    1.55057365842246   -0.92140784814967
H          -3.22322363429222    2.53708463972524   -0.29390541724196
O          -0.74721736158009   -1.70770667787790    1.51092930764824
H           0.22727174387593   -1.83198879793069    1.57716020152151
H          -0.90797714686164   -0.14134394451296    1.67961726316987
N          -0.89462149166587    0.91476282257472    1.52891747348959
H          -1.78357117415779    1.22484916048332    1.07356004199676
H          -0.13897499504197    1.09220010365135    0.79450369405733
H          -0.70881578467570    1.41842651937249    2.38873700094695
