    23
        -45.36427710  Gyration_radius:  2.28835995261 Dipole_moment: 3.484
 S           0.12194869924881   -0.74932937265244   -1.39545579377121
O           1.28777994724226   -1.36219806384842   -1.95091074579288
O           0.22817186736500    0.67343789554985   -1.16972743538311
O          -0.21275404249424   -1.42692125023093   -0.02614844277885
O          -1.11329327618762   -1.06262145410113   -2.21441512647819
H          -1.83738194234128   -0.37236047762276   -1.90914962174083
H           0.54817084869452   -1.25456591795565    0.60665143430632
O          -2.49878725741023   -0.13004168128418    1.17828355306228
H          -1.77533702725161    0.46451582673212    1.49960149219582
H          -2.07560639188969   -0.98212204868784    1.03668637401538
O          -2.59297045811768    0.72049687015641   -1.28818548844275
H          -2.72772644140724    0.42289654530309   -0.34133628234283
H          -1.89742601245061    1.38670173629884   -1.25672842983966
O           1.87346922909025   -0.90067582840744    1.40046728115191
H           2.37593464865308   -1.69837725272086    1.58096292575041
H           2.38968062168908   -0.39743431748868    0.71477850437342
O           2.95962372316964    0.28477723645748   -0.67756574941912
H           2.63643381594867   -0.39098909109576   -1.30089489330272
H           2.40578274240789    1.05180692923745   -0.85640095979899
N          -0.27844659903146    1.33198868005062    1.62895895820216
H          -0.00628494588291    1.31518046115830    0.64860739176024
H           0.41032827795403    0.78808619341725    2.13525600251193
H          -0.22131001691785    2.28774837164298    1.95666504186902
