    23
        -45.37695756  Gyration_radius:  2.29660783266 Dipole_moment: 3.457
 S           0.08633040540628    0.02489895445620   -1.89778361049809
O           1.42866016412677    0.00752380763221   -2.40984651912040
O          -0.19822567672655   -1.04031336971411   -0.94632921197663
O          -0.89627793959223   -0.22124005502122   -3.11976486447776
O          -0.28197467391710    1.33134148864051   -1.33844131866916
H          -1.74773841557731    0.92831619035405   -0.52030190234242
H          -0.45840838688607    0.19499335707778   -3.85619730802083
O          -0.38306747552240   -2.02590460704635    1.59207042407555
H          -0.45750302658055   -1.79070173399567    0.65196491318911
H           0.51563142360362   -2.33920174835899    1.71296518604551
O          -1.05510803601141    0.46257747629613    2.35182873631169
H           0.15080511371390    1.04288010413051    1.66104543236082
H          -0.87672091817311   -0.50053562444892    2.32307443239084
O          -2.43195193997186    0.53105517407493    0.05005364127128
H          -2.47953966075088   -0.38900820433068   -0.22142384922167
H          -1.73905487302466    0.59506577491472    1.65689592251036
O           2.23876764320498   -0.81365022507204    0.09385105476376
H           1.37918284547618   -1.09029650556359   -0.28254620349641
H           2.75067689597684   -0.58301459022630   -0.68864666970747
N           0.94602829712409    1.36684965512940    0.98491104056034
H           0.48131653796119    1.53134060772260    0.05240562839249
H           1.61446219375294    0.57566368032156    0.82940964247106
H           1.41370949239489    2.20136040305727    1.32080542320759
