    23
        -45.37695758  Gyration_radius:  2.2966418869 Dipole_moment: 3.456
 S           1.81358159650543    0.50005414006219    0.26394214574799
O           0.56312397174279    1.22493761927376    0.44285433366814
O           2.37599304618442   -0.00472440917243    1.48591103219509
O           2.83661530932291    1.55607752952499   -0.33416516041427
O           1.66543639128895   -0.54410865861307   -0.75723367606333
H           0.67673358252062    0.27495317060528   -1.91142558140190
H           3.69072365881085    1.22064904789689   -0.07835758544787
O          -0.02851452878112    0.77130331676468   -2.36701426676749
H          -1.49266287771079   -0.10399647039729   -1.97070695025242
H          -0.05846067224719    1.62375553742213   -1.92556487563189
O          -2.15203313894708   -0.54475147736219   -1.38832544840116
H          -1.24462685869705   -1.41657495515689   -0.56089192074184
H          -2.41158811319137    0.15752661075023   -0.75607446802585
O          -0.20523744556032   -0.49052436010161    2.32402540631293
H           0.64013240936698   -0.70124607633419    2.73451711173536
H           0.01324732587005    0.27723503052054    1.75843810984276
O          -2.16127152279804    1.36772703169798    0.49936619877535
H          -2.31958795926532    1.13664987527317    1.41695866858004
H          -1.20061044037717    1.49197334937818    0.41937115332656
N          -0.45495068763423   -1.87852178445689    0.03698153202337
H          -0.51180583262967   -1.52534421948013    1.02128608019152
H           0.45297222061161   -1.50215143052704   -0.34595547565793
H          -0.48720945442366   -2.89089841755969   -0.00793634364367
