    23
        -45.35341469  Gyration_radius:  2.43467490372 Dipole_moment: 4.535
 S          -2.21365461935807   -0.04853410872376   -0.97102676755805
O          -1.54638640858561    0.04004897307879   -2.22099169498124
O          -1.74117193785919    0.80435924497099    0.08764696744542
O          -2.25801176122521   -1.49019359441010   -0.45619381593371
O          -3.73131585100350    0.27388597849726   -1.20805796303093
H          -4.12294067773501    0.43997721813021   -0.35305354409140
H          -1.54314500602477   -1.55260465500115    0.30474659637244
O           1.66372454668360   -1.54837836907318   -0.22297491802292
H           1.77779468116673   -2.35553328880296   -0.72628932919917
H           1.53478548367525   -0.81646833510877   -0.90023133427538
O           0.68072227786286    2.18180762051732   -0.02283685777376
H           1.15110687104232    1.74950997659613    0.71942885022051
H          -0.24421483548077    1.91188744908678    0.05326309260309
O          -0.47784133974092   -1.33498681457863    1.27369714849158
H           0.36859427990104   -1.48156366048539    0.76818779776843
H          -0.56554932821413   -0.37740766978887    1.36692707271884
O           1.17329862062953    0.35666221793752   -1.91109648941337
H           0.27264372756349    0.24208649309084   -2.24861961402373
H           1.12926766914889    1.15725655934148   -1.33832777229556
N           1.99419035946111    0.63195169740983    1.87741070390565
H           2.22369811858985   -0.16116181327074    1.28679915576374
H           1.61358828925445    0.27070742777483    2.74362627360688
H           2.86081682025348    1.10669146279695    2.09796643172282
