    23
        -45.37140815  Gyration_radius:  2.35024348537 Dipole_moment: 4.220
 S           0.38863076007569    0.96726687497336    0.27888337602713
O           1.64294734244688    1.66126340861843    0.29868985546879
O           0.58364534491706   -0.51345701882440    0.17004437153589
O          -0.38122862792703    1.32932131190038   -1.05399150117406
O          -0.52739783474687    1.24869208355723    1.35570139596618
H          -1.96033425540599    0.43225928312541    1.84631595567493
H           0.34017313295920    1.61714913582189   -1.69206965663398
O           1.74633894464441    1.90165668447010   -2.35355332669976
H           2.07386295448039    0.98307052980521   -2.44268029140158
H           2.07096878997692    2.18667274880631   -1.48379325448262
O           2.42483030140135   -0.64211590319950   -1.76130444403369
H           1.77477479891135   -0.66723863253638   -1.03113041744881
H           3.28710340812278   -0.65425737599313   -1.34141618072919
O          -0.22215495067990   -1.63214991513661    2.51303758326741
H           0.21039813583799   -1.16816787933076    3.23208465042643
H           0.17767514210178   -1.28144792839110    1.69455937929254
O          -2.51701606787660   -0.37759104498138    1.89732382402857
H          -1.91745963698842   -1.01534821240524    2.33844473949460
H          -2.31877404881874   -0.74561571851549    0.46809395197350
N          -1.86688171385954   -0.90086199186943   -0.52615839253859
H          -0.81586102842854   -0.91369951643908   -0.31570191421277
H          -2.00956114701792   -0.06963048941917   -1.10117188349944
H          -2.18467973410070   -1.74577044404297   -0.99020781030247
