    23
        -45.38060421  Gyration_radius:  2.2571052824 Dipole_moment: 4.443
 S          -0.62053557503736   -1.79243697849005    0.09445887301145
O          -1.24823580531438   -0.92318430936582    1.07420954441242
O           0.81204781215990   -1.50363921765248   -0.01841617236961
O          -1.28926281606547   -1.82088352945862   -1.18382425940605
O          -0.71494893495439   -3.27266277758951    0.65929647438666
H          -1.31902867372253   -3.66202334297864    0.03663170331994
H          -1.28897979732355   -0.27691182289928   -1.94994363995734
O           1.03887205909461   -0.24583953867622    2.27122574851334
H           1.22538703125982   -0.83436489697114    1.51041176857310
H           0.09341223390732   -0.40806748535297    2.40995628320497
O          -1.65079717026912    1.56778095295667    0.24524488787911
H          -1.71090491377114    0.67187984092685    0.63943401372380
H          -0.22481937158684    1.89183394026295    0.55703296490782
O           1.63823597128714    0.48850692835296   -1.45796049293301
H           2.43265219951914    0.22581345904018   -1.92493752173633
H           1.32920558153003   -0.31873472435411   -0.96820956688032
O          -1.10865641621301    0.65810092019088   -2.17225882503828
H          -0.14646080248360    0.72568376811512   -2.22387332611321
H          -1.62795138656960    1.39256377050449   -0.72735055852191
N           0.85536867494296    1.89903000477980    0.74327570818604
H           1.02359743867750    1.13969646927526    1.47124881749000
H           1.18964091451453    2.80574253874354    1.04773863574942
H           1.31216172612645    1.59211604073285   -0.13339105083516
