    23
        -45.36802321  Gyration_radius:  2.3258392749 Dipole_moment: 7.569
 S          -0.20876020730506    1.40807344067028   -1.12640001685975
O          -1.32350631535504    2.06454644180653   -1.73663507698290
O           0.01807695299440    0.04695408278490   -1.62193576746874
O          -0.26487126661242    1.38832516918368    0.34487248166557
O           1.08855968668443    2.22482397036875   -1.49479325654438
H           1.79600876468888    1.80668775692363   -0.98926074736694
H          -1.43576680080046    0.35622571388778    1.06257099395533
O          -2.00494520267854   -0.44034358467594    1.13163193735431
H          -1.07461041488301   -1.39256565197566    0.53068666405257
H          -2.64901673865392   -0.32006102003497    0.39960807938167
O          -0.32320120250408   -1.85309061647565   -0.05321283705192
H           0.56473345863029   -1.85982138707241    0.52086862743409
H          -0.16189917604933   -1.12892382001447   -0.78270644041787
O           2.23770548666959    1.06355677760877    0.76773050103013
H           2.56592402323589    1.75890135079013    1.34141285837335
H           1.25172642651717    1.17929305864316    0.73299152487507
O          -3.03037910344588    0.07569734043241   -1.26891580064325
H          -2.79554128866432   -0.53568254292386   -1.97003340960551
H          -2.54765495691211    0.90156669579648   -1.47127718869807
N           1.84591552252031   -1.73652316512556    1.29518277361084
H           2.57026651297500   -2.36104874125571    0.96546090206255
H           1.73173928929715   -1.87187480326981    2.29149332522713
H           2.14949655963584   -0.77471647610142    1.13065987259289
