    23
        -45.36661675  Gyration_radius:  2.38863486421 Dipole_moment: 4.769
 S           0.43673558473352   -0.14718533740831   -1.19368718530108
O           0.95725215620444    0.53581892015235   -2.34057913049140
O          -1.02935337680130   -0.14024117590543   -1.12930948323160
O           0.91520081020382    0.62471485356823    0.10466512508482
O           0.94815710000793   -1.50600937833813   -1.00392264399953
H           0.55373570862841   -2.16221938849947    0.15413493211519
H           0.97168217465349    1.57948525977475   -0.21080940727424
O          -1.55692010898853    2.37388506985861   -1.79718389392403
H          -1.60551948476450    2.36929300957533   -2.75528228835987
H          -1.46298135353520    1.43422417371729   -1.53537875098104
O          -2.12522235566259   -1.49680176733410    0.76621197593382
H          -1.76858533415911   -0.89731763419159    0.05310095973958
H          -2.83299913824264   -1.99721572157050    0.35576397106829
O           0.17506934004972   -2.52568568037161    1.09316238062092
H          -0.80391061273176   -2.23830891517770    1.05766959494628
H           0.63160375508819   -1.88212840676856    1.79992887046498
O           0.96970978834342    2.88007929578376   -1.07920793496255
H           1.28277229970897    2.35925747255543   -1.83626015172175
H           0.00641033235099    2.97963273053649   -1.24377521652086
N           1.23417293066727   -0.76310611039009    2.59619307894717
H           1.25506398046886   -0.06073944060267    1.85645261221313
H           2.17804388329677   -0.90883801694373    2.92957480412339
H           0.66988192041964   -0.41059381184750    3.35853776149018
