    23
        -45.37421324  Gyration_radius:  2.4350979271 Dipole_moment: 5.440
 S          -0.92845746710647    1.32313611951549    0.59256939809095
O          -0.30245492020419    0.48745505816257    1.60338230871156
O          -2.13171044437397    0.74154110473173    0.04871522876402
O           0.04852672619678    1.63507443016840   -0.47875617558054
O          -1.31216420205241    2.68638729653642    1.25180583247140
H          -0.44475170336403    3.09250514809031    1.44366648561806
H           0.26726902564582    0.37561030228854   -1.33669472096483
O          -1.78921654138491   -1.70627437341421   -0.82199519825799
H          -1.36703917128353   -2.09032126112924   -0.03706744439899
H          -2.14072908921974   -0.83926477554407   -0.51210896394896
O           1.97636573627732   -2.19139564961429   -0.46743247346544
H           2.06147346321217   -3.11955839432307   -0.69159652273120
H           1.34294527223440   -2.14550001610527    0.28396973517158
O           1.22237919585708    3.44775729686466    1.02154265182259
H           1.03929275255289    2.73003108270494    0.38191000097514
H           1.33277620470072    4.24995712726003    0.50617677267971
O          -0.03070269155301   -2.04016039002831    1.30574482275456
H          -0.00816618138135   -2.39497371162335    2.19600669045620
H          -0.13131655834352   -1.05074204992884    1.42548595516598
N           0.32780545447810   -0.56366520542039   -1.84171198572103
H           0.41892346369191   -0.42723081276397   -2.84215888369415
H          -0.57468543548504   -1.08656106301700   -1.58351767053339
H           1.12363710090334   -1.11380726341477   -1.44793585337856
