    23
        -45.37421325  Gyration_radius:  2.43506053349 Dipole_moment: 5.440
 S          -1.04638279101561    1.14978184116736   -0.73992607806075
O           0.11647805253777    0.76037646927865   -1.51978995362974
O          -0.73693264962412    2.11456027755789    0.28736878730043
O          -1.69507638566690   -0.05467018246222   -0.16716523502016
O          -2.09005331152411    1.79740985422667   -1.70513052955065
H          -2.37270543193233    1.04685405050626   -2.26275359104640
H          -0.82547781184162   -0.58989526506779    0.98499128462466
O           2.37202229668094    0.23075064517839   -0.43192748409349
H           1.49043539827263    0.43330554160979   -0.86228847168631
H           3.02539091227300    0.42323959534546   -1.10649009720273
O          -2.80588886258496   -0.64146010926396   -2.47729275483342
H          -2.37407717801584   -0.69185192738994   -1.60048331554321
H          -3.73653443341121   -0.82746276337987   -2.33341315456083
O           1.23945658945895    1.36873506000804    1.83817470161224
H           1.89363099014924    1.14701862791059    1.15645750246768
H           0.53308603805715    1.85426617545675    1.35175201045324
O           1.93152820258760   -2.18626895347785    0.64486098184207
H           2.14153368185988   -1.37180564172743    0.13450342135628
H           2.71801786646672   -2.39746132988953    1.15063910220038
N          -0.13115237066047   -0.85416419732112    1.75248682947094
H           0.42266407140116    0.04310551453603    1.95925935353906
H           0.54752344333852   -1.55262275176716    1.37485004428536
H          -0.61748633681328   -1.20174052102726    2.57131665607717
