    23
        -45.36335622  Gyration_radius:  2.46174461934 Dipole_moment: 2.403
 S           0.61435251222533   -0.52160366725968    0.68524145980193
O           1.52272961487558   -1.38191570261115   -0.01674544757313
O          -0.77952486188172   -0.85243100026969    0.53428864111955
O           0.81825000433239    0.94193642764425    0.22082943810697
O           0.98460269780615   -0.47662380613021    2.16601485751266
H           0.56424563999943    0.38030315743462    2.55788204171943
H           1.43566014450717    0.92842622252001   -0.60787616264264
O           2.28936165067518    0.55096528530156   -1.77158136116986
H           2.51994923916007   -0.31587724256905   -1.40959562493240
H           1.62120054016022    0.37686684366805   -2.47936360834148
O          -0.10261846827090    1.69816133460874    2.82976304741179
H           0.22747319604130    2.23287721599385    2.10149356958472
H          -1.06228987680689    1.49480571958120    2.61190528475218
O          -0.38898331857554   -2.21383440503782   -1.78057081405643
H           0.46551847424181   -2.37716997910615   -1.35966547885310
H          -0.90863028958824   -1.81115116693524   -1.06879730740597
O           0.35769586452392   -0.23520851000846   -3.41307300859690
H           0.50921170868269   -0.59114646620758   -4.29012452343088
H          -0.01820675179053   -0.97119218755751   -2.87491690195355
N          -2.47914225944401    0.93216307149699    1.97501624175340
H          -2.04914152716996    0.21677486958035    1.38754391810679
H          -3.03995529555908    1.52803775394878    1.37924969361895
H          -3.10175863790818    0.46683624330901    2.62308204550300
