    23
        -45.36665483  Gyration_radius:  2.2682743849 Dipole_moment: 4.256
 S          -1.21100387867637    0.74601739541857    0.88315391583322
O          -0.41085548028120   -0.44103492350281    1.16823913245678
O          -2.61326373571334    0.56054277510020    1.02726945563298
O          -0.85776480070249    1.20599069248870   -0.55046827332299
O          -0.70991395275639    1.89664596803425    1.73926061431826
H           0.31552887862732    1.77695014239234    1.82296922332602
H          -1.01382445044412    0.43046735382895   -1.22027071618422
O           1.73427436768061    1.32360386414234    1.81396172870086
H           1.98968842798893    1.34579995778947    0.83918841206732
H           1.61264435662289    0.39483381209365    2.03298928385980
O          -2.36185623963053   -2.00897375431076    0.05181821134671
H          -3.12972369178559   -1.47408467604916    0.27844350959014
H          -1.66736048852180   -1.68835828846113    0.64719997491031
O           1.13875608840454   -1.61705242163035   -0.66455580872422
H           0.64031357609578   -1.19799342781931    0.06832132196037
H           1.20924775445547   -2.54780516367887   -0.44428397862609
O          -1.10759328477625   -0.84159295057273   -1.99542982332462
H          -0.21856563959603   -1.20949686009569   -1.83088449321892
H          -1.71217711547135   -1.38076279950749   -1.43575390882894
N           2.12664769817101    1.21954778807402   -0.79298474584908
H           2.87011284543364    1.67931282663610   -1.30193383636223
H           1.23866133234982    1.59485309863971   -1.10801881912215
H           2.13802742253316    0.23258957096332   -1.02823038047526
