    23
        -45.34543034  Gyration_radius:  2.45404645074 Dipole_moment: 6.105
 S           0.26025515857690   -0.70873711169925    2.09140309047970
O          -1.10407152411357   -1.09488606966078    2.20633123649359
O           0.54713553691222    0.59375760103469    1.56369638215670
O           1.04231773346901   -1.76924222425239    1.32645295196963
O           0.89561922167729   -0.76355141904984    3.53524438752070
H           1.62375707023359   -0.14570508708531    3.54525596506248
H           1.67902762161931   -1.34160429148120    0.59750757638542
O          -1.40894816338515   -1.34326798335118   -0.44699522097496
H          -1.71923020993659   -2.23544727250790   -0.61406252714698
H          -1.43526096697184   -1.21834507789615    0.51685143717515
O           0.17764486733987    2.34481716150425   -0.46923303834652
H           0.21408776259475    1.78612116461337    0.32711460894073
H           0.89937866686140    2.97099877787952   -0.39301261305497
O           2.46678118739572   -0.80172471291999   -0.46024568597032
H           2.85663372811558   -1.52700078061640   -0.95477608689845
H           1.73754456727072   -0.41150363101013   -1.06032590718471
O           0.50557181697890    0.04825966821541   -1.85739165422740
H          -0.23135618314071   -0.46854081773625   -1.48644016617672
H           0.35005871874105    0.96278115516912   -1.54370021892104
N          -2.60674692915556    1.37710800794898   -1.60292541065010
H          -2.26549733989992    1.23979893976829   -2.54742192903816
H          -2.51883092945985    0.48756634783390   -1.12420347107121
H          -1.96587144172232    2.01834763529309   -1.14912372651739
