    23
        -45.37517129  Gyration_radius:  2.45643739166 Dipole_moment: 4.748
 S          -1.12065542578215    0.81805764504525   -0.91928361708168
O          -0.36514173841216    1.98578882964780   -0.49220249496805
O          -1.64112199928696    0.05936447347637    0.20492393015955
O          -0.32101854559989   -0.04449321569641   -1.80058375731886
O          -2.32622489156652    1.34876473265613   -1.75915318459536
H          -2.66839404558969    0.54275640150440   -2.19295727708491
H           0.99443077662919   -0.77410862181423   -1.06859866307540
O           1.66960045057256   -1.06926736182431   -0.41468370236071
H           1.95845258448412    0.34534280896611    0.22644144691387
H           1.15486505054792   -1.50715581427575    0.28202674792560
O           1.22672841341520    0.27331907391276    3.13145061784793
H           1.85595172835644   -0.25091839357133    3.62961978862121
H           0.62377051646605   -0.36418945207357    2.68791117500975
O          -0.16409994613908   -1.46715668465486    1.63044210154075
H          -0.74691451170482   -0.86131522217581    1.08531539873539
H          -0.75883903278215   -2.13456804104884    1.97662350238548
O          -2.45369830606121   -1.01793217500639   -2.95700082099530
H          -1.55625220292719   -0.89233445501263   -2.58186312178137
H          -2.35354420374218   -0.99181918269371   -3.91121426669569
N           1.81899318479420    1.29136865073570    0.70535608383073
H           0.92640487812107    1.68260914915725    0.25893356249956
H           2.59958556325164    1.92159061729429    0.56076060573276
H           1.64712169293863    1.10629622745672    1.71773597474791
