    23
        -45.36052940  Gyration_radius:  2.37419432301 Dipole_moment: 4.621
 S          -0.98603897921281   -0.14477958353573    0.86264431259978
O          -0.06255790483667    0.93538528002836    0.57871634780817
O          -0.58063018621638   -1.42349970767263    0.37201204561924
O          -2.36679205018578    0.24579970555503    0.35089943612130
O          -1.17908492058706   -0.24396738372212    2.39014938415830
H          -1.21132926394865    0.68873096001088    2.72361987927735
H          -2.25168681977019    0.65385508004848   -0.60613235712522
O          -1.80242432899690    1.15728970956653   -1.90205056501994
H          -1.27481150844333    0.36969775823722   -2.24451461748832
H          -1.15908356777207    1.85367003529875   -1.74293212830549
O          -0.26427536574604   -0.86413830988713   -2.34671550693541
H          -0.43191830784313   -1.37075262956325   -1.54091998082070
H           0.61240866364118   -0.43470628113623   -2.19408929819676
O          -0.83503834120046    2.31083299843451    2.70363138520815
H          -0.43577423779274    2.14778751819764    1.82951385860342
H          -0.13112596283952    2.60820868492721    3.28553815471442
O           1.87684299328286    0.34580872012261   -1.33434232852697
H           1.32855373004473    0.71878438492191   -0.62996349345694
H           2.27272894546708   -0.45860791183544   -0.93995598481107
N           2.29955789885238   -2.04094264692089   -0.03027796906761
H           2.42714961158983   -2.84775506758550   -0.62901019247085
H           1.31710854167062   -2.00848848533975    0.23194511872882
H           2.83822136082520   -2.19821283815324    0.81223450939761
