    23
        -45.36802313  Gyration_radius:  2.32589474516 Dipole_moment: 7.574
 S           1.77464280696466   -0.38435791788037   -0.00306750468995
O           2.91612340839769    0.09646850835909   -0.71853711954487
O           0.71433493187633   -0.92330039510878   -0.87085276234155
O           1.19604547733332    0.60112167716062    0.91543823975514
O           2.24638893244159   -1.59026181371103    0.89667321484824
H           1.43649771408237   -1.93611534954645    1.29048974923645
H          -0.12428010681419    1.17930033643072    0.70811587772407
O          -1.07771938724802    1.48186256436772    0.42225348045536
H          -1.71876213392885    0.71370977255703    0.76501383530804
H          -1.01394656898985    1.39564574743960   -0.62954906302234
O          -0.59974231326299    1.07780450029622   -1.99353131148522
H           0.16660233469559    1.68300577795191   -2.10201963581836
H          -0.17722210839495    0.21306365683637   -1.80127104537623
O           1.71925738657997    2.31423664145701   -1.57723513749762
H           1.76925332860979    2.86356410841411   -0.79217097997996
H           2.27910153623334    1.53583657838227   -1.38573988857479
O          -0.42478740831643   -2.40084302381558    0.88106328030382
H          -0.07857713724221   -1.86283712324138    0.12129875963225
H          -0.46987027047522   -3.30572988351205    0.56560011966396
N          -2.51840333748926   -0.46351519619667    1.24410101597969
H          -3.29563864087668   -0.69894619196675    0.64041324182214
H          -2.86532737742680   -0.34974740439164    2.18755546636852
H          -1.85397104687505   -1.23996558021331    1.23595818729124
