    23
        -45.37284702  Gyration_radius:  2.34809204715 Dipole_moment: 5.660
 S           0.42001905010715   -0.69183018562019   -1.82681162357371
O           0.89689499368738    0.43557911317140   -0.99836512004250
O          -0.40580624258407   -0.26470111407903   -2.90528175542490
O          -0.19887262392527   -1.69611817011851   -0.95172379339561
O           1.73042002422075   -1.36128672412527   -2.39355968277283
H           2.24172975837077   -1.54889885634756   -1.59688092346494
H          -1.40260613328775   -1.25367471962907    0.17812070828176
O          -0.70109031801896    2.71936944320159    1.60297399408648
H          -0.98559564473181    2.51639079536320    0.69560175882983
H          -1.49409691411410    2.95305148041616    2.08817186957656
O           2.02015961076052   -2.05129659150849    0.33757339344327
H           1.11511688869182   -2.00687382114799   -0.04719084091045
H           2.21863379508748   -2.98399230611819    0.44035405077541
O          -1.48732162669272    1.53745581632421   -0.80004900088080
H          -1.89595643728610    1.52801091751790   -1.66887389222946
H          -0.57532228035923    1.21095630425812   -0.96350282860352
O          -1.82498323331694   -0.68067090192450    0.85348319049985
H          -2.06730552817089    0.11890633171391    0.35742373032020
H          -0.43187986846108   -0.20993129470154    1.49555804087275
N           0.50306284692855    0.29955136495606    1.56108157220929
H           1.18280631237154   -0.17596873121371    2.14406258292670
H           0.29969591189921    1.27420322825758    1.84770102388170
H           0.84229769883373    0.33176862133579    0.55013355567101
