    23
        -45.36538866  Gyration_radius:  2.33637795411 Dipole_moment: 4.681
 S           0.43152913792094    0.93197949527738   -0.54687040004060
O           0.48804258724946    1.28772437023892   -1.95562158507092
O           0.77517660988904   -0.48174956722657   -0.33269355618809
O          -0.89444617070066    1.20139517089758    0.01914036661369
O           1.47667885502049    1.79716025539478    0.18599764554721
H           1.45787637316650    1.59850208700337    1.17282449912925
H          -1.87060990202893    0.84104690792949   -1.17777803698891
O          -0.78588914655028   -1.80057474801738   -2.01776366652406
H          -0.16813141806612   -1.41142940977100   -1.35560285515198
H          -0.22916637021101   -2.19955496774431   -2.68864409833601
O           1.59528772393740    1.15819189143634    2.67686542273369
H           2.44538884903665    1.45040133726107    3.01196068023965
H           1.65880722467907    0.16792062323408    2.57520312532490
O           1.68871241393044   -1.39561094491103    2.08763754296787
H           0.78903875154937   -1.66511103373752    2.32958365484865
H           1.62603925125842   -1.22120577366843    1.13284662809880
O          -1.04052946899807   -1.10828802398476    1.70323436679192
H          -1.44935862996686   -0.27924143368479    1.96120470715649
H          -0.54649086890830   -0.89306056138594    0.89763054484445
N          -1.92785076040242    0.57320209612391   -2.20987033515401
H          -1.76676205296501   -0.46208178359493   -2.26775000566177
H          -1.00261167743887    1.00778025260848   -2.49944219888492
H          -2.75073129036650    0.90260378072793   -2.70209243588015
