    23
        -45.37292326  Gyration_radius:  2.32104772498 Dipole_moment: 4.909
 S          -1.14118340961136    0.12621201911211   -0.76532012268489
O          -1.10882844939154    1.04276739131423   -1.87243911794752
O          -0.95504402811195    0.79062053521909    0.52740291020314
O           0.05211625905963   -0.89182613153769   -0.90049944091168
O          -2.31178196087767   -0.75556872166286   -0.74304573650827
H          -1.86365694392618   -1.86310078280101   -0.01664567637079
H           0.93347962282165   -0.38058843961969   -0.95410014207845
O          -0.47746610277338   -0.96040651980321    2.39185011697257
H           0.44585846093494   -0.75730931234684    2.56661411605033
H          -0.78112506441878   -0.23127306611357    1.79426934321809
O           1.01377711947702    2.57990885420804   -2.00771853222425
H           1.09347006178194    2.83561390457271   -2.92808294345065
H           0.15418019619587    2.10285461163990   -1.93866295342210
O           2.20111026864802    0.46706851287998   -0.89010810373586
H           2.17264950866824    0.74960690301337    0.04652794617715
H           1.94052822471399    1.26916328878782   -1.39443631986764
O           1.42019999190879    1.41597109600426    1.50740879403475
H           0.51104249092673    1.28133218400883    1.15723518709364
H           1.54090053445630    2.36598559226790    1.55196017236728
N          -1.34236857227450   -2.65755417382990    0.58387255391548
H          -1.97049428886384   -3.40191271760141    0.86833257393743
H          -0.94452320675446   -2.12655276042281    1.41393330011617
H          -0.58284071258873   -3.00101225729039    0.00165208511137
