    23
        -45.36428908  Gyration_radius:  2.30233797909 Dipole_moment: 6.839
 S           0.95486004691952   -1.72131179294240    0.63725664540943
O           1.55868514757456   -2.96175016418844    0.97916325007563
O           0.72544614110197   -0.81869493748377    1.78208242676752
O          -0.30898541095320   -1.86274835751909   -0.12740187952191
O           1.91548590735331   -0.88746659567821   -0.29835467923410
H           1.62866576897459   -1.07516361073364   -1.22649943309500
H          -1.40052644782894   -1.10317932892009    0.58601304205630
O           0.60560219312851   -1.20830064510895   -2.52833971937440
H           0.04393612784295   -1.70402607846008   -1.90900530009219
H           0.27233711820377   -0.29630170136656   -2.49439104657368
O          -1.67409328852477    2.00987542738766    0.36336301024165
H          -1.45096488253251    1.86962257500116   -0.57003449586667
H          -0.82663785308673    2.22549724402436    0.77918177750571
O           1.05065014358904    1.55859351241632    0.78673315606197
H           0.96905132926010    0.65166541816513    1.18291689740963
H           1.98679796247479    1.75853370715059    0.83603628586627
O           0.05665057436528    1.41109536840044   -1.73551735776453
H           0.54869749640832    1.36224776646968   -0.88564790941262
H           0.54650006904507    2.01235185039281   -2.29883136413860
N          -1.77698328725754   -0.45436125794177    1.36353195515624
H          -1.91351239757336    0.52241067719434    0.98692866402176
H          -0.91394179187789   -0.47059353460950    1.95707982724253
H          -2.59772066659316   -0.81799554162333    1.83373626719012
