    23
        -45.37605301  Gyration_radius:  2.24833115675 Dipole_moment: 5.767
 S           0.28821449577946   -1.14029527709116   -0.57881862308600
O           1.15391974383423   -2.13606707876356    0.00844489109603
O           0.43241890421920   -0.96599583702340   -2.01230752095255
O           0.76000598529072    0.26612118396035    0.04596294940205
O          -1.10307625720688   -1.26444766622383   -0.16046501096520
H          -1.70685287348090    0.10265336107848    0.08126180925743
H           1.68969932705214    0.32467137782312   -0.25271971053029
O           3.00578460653244   -0.47872904965068   -1.13936725179978
H           2.47156715471174   -0.58334525430516   -1.93743176730873
H           2.86788909664230   -1.30222421787468   -0.65059276023921
O          -0.32788402065543    1.29915873209964    2.37671381968209
H          -0.20019432195595    0.32716510074585    2.48434915605093
H           0.52762718810295    1.61928071939038    2.08050639128609
O           0.05558003942576   -1.38530706474622    2.38944194731886
H          -0.80465094341974   -1.78567315240151    2.23921523532678
H           0.59408206180909   -1.68993001124725    1.63722150371868
O          -0.78102875457702    1.38422466051933   -2.25965696980300
H          -1.21895439593851    1.37913820560874   -3.11269897746561
H          -0.29332441984401    0.53095227687502   -2.20738267861003
N          -1.85547439045045    1.15624759538893    0.21462422418834
H          -1.45411677462373    1.55759305261364   -0.65585932298071
H          -1.26983017444494    1.38178976881295    1.07251954838562
H          -2.83140129682826    1.40301858455627    0.33703911812032
