    23
        -45.37862762  Gyration_radius:  2.2869079966 Dipole_moment: 3.438
 S          -1.35935441387633    0.37835210134452    1.17436374881429
O          -1.80008779912696   -0.05879358892526   -0.13724422677951
O          -1.01588171284944    1.77830096023203    1.25998757825137
O          -0.30766263442307   -0.49045467761957    1.70556756957547
O          -2.61115992121750    0.16946039537213    2.12996895828188
H          -2.41588881819001    0.73913797795624    2.86716175143704
H           1.34627427730564   -0.11113118769141    1.12931377687514
O          -0.07937868525694    0.65471749182859   -2.14640521068300
H           0.37839904648031    1.40280013355593   -1.73220045840944
H          -0.83042012565139    0.46663856493718   -1.55905809524031
O           2.11398271066769    0.07909059252721    0.56380713333498
H           1.97321773200119    0.98324815113078    0.24365462186702
H           1.96486408616761   -0.92284428659633   -0.82055576768685
O           0.96773167557701    2.45363028657060   -0.31367921953362
H           0.21139609468585    2.26205582223380    0.29008465774255
H           1.11804905078828    3.39894611381249   -0.26693302406149
O           1.50340412965190   -1.38977821262610   -1.55933873269839
H           0.42523158635672   -2.03473776418649   -0.82023357053027
H           0.99857192882957   -0.66880366711422   -2.00976667528822
N          -0.44224600698670   -2.27984882567194   -0.16624020281076
H          -0.66697707155239   -3.26719894320198   -0.12808661034203
H          -1.23429982657805   -1.68517794616973   -0.47423893953730
H          -0.23776530279703   -1.85760949169084    0.77007093740706
