    23
        -45.37862780  Gyration_radius:  2.28692997598 Dipole_moment: 3.435
 S          -0.43625051652685    1.73407944932296    0.41558875473766
O          -0.28300543869920    1.47478259518608   -1.00389714306961
O           0.80031253920429    1.97063309095519    1.12275708717450
O          -1.26585822685128    0.71564460629163    1.06173611865609
O          -1.26603638625799    3.08560346066208    0.50920784334625
H          -1.07448266175186    3.39467359799271    1.38889939537912
H          -0.39870225989976   -0.78203166558272    1.52705815356911
O           2.44078501726428   -0.07147656402823    1.04399079179225
H           3.26728585455980    0.15340092480247    1.47377711600913
H           1.87084419238955    0.73186572276568    1.09934271975860
O           1.55026276455178   -0.48676333009976   -1.54964885632596
H           0.99152941195419    0.30702497793716   -1.50342166475081
H           2.08533131773483   -0.46104742313865   -0.74108426599872
O          -0.24324369341308   -2.35988611475180   -0.99766073457578
H           0.51049114108097   -1.83454617164200   -1.36284620365938
H          -1.32384302987521   -1.39227946074476   -1.14172313502387
O           0.15436628180805   -1.58144170762698    1.50715429736459
H          -0.10262506572264   -2.31859879277030   -0.02027252931715
H           1.06717392940931   -1.25561362910270    1.48541610333661
N          -1.98213968395748   -0.49431782793204   -1.11710465971002
H          -2.01346394839811   -0.17565760552008   -0.12002051805964
H          -2.89716077962542   -0.63911640202968   -1.52774261930512
H          -1.45157074901857    0.28506828904655   -1.54950606128159
