    23
        -45.37434825  Gyration_radius:  2.42233119645 Dipole_moment: 2.251
 S          -0.10165168246862   -0.34996526869943    0.81145598538671
O          -0.62030260871282   -1.29002988093239   -0.18876945414832
O          -1.15290553568623    0.50888949711985    1.31994013027093
O           1.01163410826396    0.42440879071393    0.25604280844012
O           0.44394373420636   -1.17180331621728    2.00684590696379
H           1.25122674537954   -1.65364943866786    1.68103686919285
H           0.43316189928115    1.45751526697492   -0.65541891708921
O           1.32015109085694   -2.56567825454981   -1.39525945402674
H           0.90455633132598   -3.33143203498446   -1.79608121052940
H           0.58483456357749   -2.02828477977885   -1.01741260292747
O          -2.23022007189955    0.43211974900788   -1.34330379617166
H          -1.69390085588243   -0.32598622353080   -1.01369902898156
H          -2.78479211418534    0.66689340189273   -0.59345407428710
O          -1.03797229165809    3.12793091152149    1.18074757484390
H          -1.17319760288605    2.16257260982671    1.34436339305109
H          -0.43034580947971    3.42009678353478    1.86208863951048
O           2.41422393484357   -2.58679041718008    1.04222546149603
H           2.19034576303740   -2.55798815572098    0.08434833629852
H           2.29606172217945   -3.49635537794747    1.32539696083811
N          -0.22880922336195    2.15489489313539   -1.15222425293844
H          -1.06906007959149    1.57046858825941   -1.42068309185484
H           0.20080631941882    2.61986919065629   -1.94365176589895
H          -0.52778835655443    2.81230346556375   -0.39453440743189
