    23
        -45.36460773  Gyration_radius:  2.35449344564 Dipole_moment: 2.073
 S          -1.88242201395633   -0.64233511390374   -0.41151269758293
O          -0.82927383591628   -0.34903574830443   -1.39392845256595
O          -2.11597990256576    0.48507047196284    0.45798221976080
O          -1.62461322340485   -1.89083756252307    0.27892494288873
O          -3.20832058694210   -0.87895753173252   -1.24136018560394
H          -3.19133491122895   -1.82417197643245   -1.34929574975243
H          -0.16494634197318   -1.98498871436918    1.09609314180463
O           1.45908034019665   -1.26469242078347   -0.94919132171611
H           2.05667808345220   -0.41467015171507   -0.98723835094959
H           0.51718330982057   -0.94758123135070   -1.23440209330615
O           0.73882435415098   -1.72096034939568    1.38894609327198
H           0.59982180603311   -0.85358398343579    1.82654851208747
H           1.30295715422437   -1.50852240760518    0.07650497058876
O          -0.24554978685343    0.61254091134632    2.28506198883575
H          -0.64111499338163    0.58692999206762    3.15801060316743
H          -0.99683057841713    0.59339639482209    1.64457054752804
O           2.69035349796968    0.93920673811662   -1.06373150500383
H           2.86209804106836    1.20154518388173   -1.96970219001072
H           1.88815296456722    1.47931142862343   -0.74941741155185
N           0.45658381186367    2.04776464423252   -0.31052320077706
H          -0.22239012004814    1.39592087753961   -0.70157351274533
H           0.15463488443890    2.98383737156364   -0.54885849562493
H           0.39640802690235    1.95481318747048    0.69809213721695
