    23
        -45.37911002  Gyration_radius:  2.28538226919 Dipole_moment: 4.299
 S           1.88976485913898   -0.30617372877857   -0.28357926000505
O           1.37388120809159   -0.67860705751740    1.03113743851455
O           1.44258890829827    1.02212272313541   -0.68103711747703
O           1.63391033760545   -1.30611076600095   -1.29467448378828
O           3.46282664003158   -0.22706445105494   -0.10750955515699
H           3.77477446227977   -0.28176647516515   -1.00517388465870
H           0.03166191249244   -1.64944373562192   -1.81629707489370
O          -1.08128127706224    1.03822944050821   -1.65186182472166
H          -0.13367438165356    1.13923334731718   -1.44471973886905
H          -1.54839306837143    1.24384340517818   -0.83076888179445
O           0.52570092420709    1.82261273510570    1.64519580181882
H           0.89904770832294    1.02725863265651    2.04550752850244
H           0.90034668939199    1.79365741509255    0.73976807096406
O          -0.94848772571636   -1.60410255575993   -1.81868574206663
H          -1.13981476849302   -0.65756377678180   -2.01626989966767
H          -1.16872044488139   -1.58473134103236   -0.33824772424025
O          -1.94724516577002    1.18916092839218    1.07655429486440
H          -2.56836916746696    1.77472740642357    1.51053729719824
H          -1.03389889028585    1.50547102069799    1.33201000032515
N          -1.12923572871398   -1.38643545422225    0.73876821702464
H          -1.64876525016533   -0.51224982971839    0.93869682235317
H          -0.10677123420609   -1.19819631464582    0.94395405715424
H          -1.47984654707633   -2.16387156821225    1.28669564862425
