    23
        -45.37662409  Gyration_radius:  2.35427575059 Dipole_moment: 4.501
 S          -0.46969143406246    1.72939783600708    0.62881361839110
O          -1.48329985902919    2.55663914430001    0.04183863400543
O           0.67962612926137    1.46603589873782   -0.24401501556811
O          -0.95749846951776    0.48098649554933    1.20228896122940
O           0.12685390595054    2.56170882435756    1.85105841619522
H          -0.46948532191170    3.30166476025744    1.90236399804045
H          -0.09661093754517   -0.55228591761503    2.15692608753669
O           0.58335550007848   -2.29919653136409   -1.54745749578567
H           0.66362213412817   -2.09377285814733   -2.48051383920803
H          -0.32167813135351   -1.96498298075205   -1.28052091570816
O          -1.09392113317552    1.16767270487081   -2.26535361754442
H          -0.24940546983710    1.29509187317297   -1.80698297774853
H          -1.67371543468749    1.80259486385903   -1.82546543912538
O           0.49611219187414   -1.27450895362120    2.47549335883024
H           1.46637954681637   -1.11207814121736    1.16662106631074
H          -0.05644731148149   -2.05735287885736    2.52800598918471
O          -1.62774804158219   -1.09178549648276   -0.88765659999215
H          -1.61698138499357   -0.38088189687757   -1.56026660957371
H          -1.51031918392869   -0.61902951555402   -0.04415730064630
N           1.84658741223169   -0.81385077509479    0.23090693377958
H           2.86011934925936   -0.79235564252519    0.22937319061411
H           1.44372529795843    0.15453491054700    0.04257980041685
H           1.46042063557809   -1.46424570351101   -0.51388024361632
