    23
        -45.37029547  Gyration_radius:  2.39286786417 Dipole_moment: 6.168
 S           0.12101330013533    1.69167298250990    0.59814648709710
O          -0.14106602728761    1.73935640372812    2.01719356058884
O           0.01889832873360    2.95507493884913   -0.08458281741871
O          -1.09584810091211    0.78326425580498   -0.00033679549253
O           1.30296020599160    0.92015984091116    0.24225635608047
H           0.99099842185622   -0.47501292202714   -0.28909535332506
H          -1.86124189491699    1.20208442336779    0.38081541308624
O           0.78938930693341    1.89810877847087   -2.36579207193443
H           0.44180655522191    2.40090471912008   -1.59698067313612
H           1.67860732846599    1.65262989039525   -2.09974605100701
O          -0.06242089236469   -0.67476780495323    2.98287132285976
H          -0.50711393583300   -0.56646558933232    3.82555315815184
H          -0.00994076648901    0.23518132251756    2.59923777292142
O          -0.68463731763595   -2.57000744562476    1.24812266374360
H          -0.53513047865280   -1.84290529672207    1.90036381573077
H          -0.34623571356301   -3.36558889903973    1.66260511985290
O          -0.73409797468868   -0.25398228255909   -2.67802183222087
H          -1.52035922151063    0.01356710497201   -2.19515027711490
H          -0.17633527802193    0.56270852084368   -2.71833126950024
N           0.67579043639957   -1.38518207477946   -0.74972909694033
H           0.10057309071317   -1.91202672822165   -0.05017003755839
H           1.47440382828856   -1.93049295675283   -1.05520735833748
H           0.07998679911465   -1.07828118150220   -1.57402207613755
