    23
        -45.37029547  Gyration_radius:  2.39282839058 Dipole_moment: 6.169
 S           0.78947735558519    1.60145663677545    0.21507751214914
O           1.52242589810069    2.16380430440816    1.31928588435230
O           0.21887075393708    2.56554571216938   -0.69576311538780
O          -0.50787971381338    0.87547151659155    0.88896485626094
O           1.46909283369239    0.49644312226511   -0.44522885793838
H           0.65382725975610   -0.79176522709891   -0.48710798484432
H          -1.02903663730505    1.62160657280649    1.16860279657910
O          -1.18699401526882    1.31624763943653   -2.49281267031624
H          -1.72236692217433    2.02483178785202   -2.85460163956485
H          -0.58440091531142    1.75369786659624   -1.84205251055179
O          -0.01642565416495   -1.62037673778419    2.26880416253862
H          -0.65744075610769   -0.92045189783363    2.41762935263169
H           0.86332568258797   -1.17773202308929    2.36743094478779
O          -2.18737808704302   -0.99524495933742   -1.68978035957928
H          -1.87356888999161   -0.09304742197570   -1.94272466433253
H          -2.41926927490158   -1.43058795388894   -2.51196029262091
O           2.23439234434970   -0.21403418578800    2.18764546936531
H           2.77141171211868   -0.47048761482854    1.43426024418055
H           1.99571864819226    0.72043903356126    2.00215476051395
N           0.06049476830263   -1.67204515556542   -0.37261246845791
H          -0.05524521424366   -1.78467782434793    0.67737010589109
H           0.52503904857433   -2.47587871526895   -0.78060599016656
H          -0.86407022492689   -1.49321444561539   -0.83197554552326
