    23
        -45.38117588  Gyration_radius:  2.29859073468 Dipole_moment: 2.266
 S          -1.48629381312411    0.02749426092358    0.15627329380506
O          -1.61946756821466   -0.92279874368236    1.24210651890386
O          -0.69563614519427   -0.52435748874427   -0.94265083614414
O          -0.91417497759551    1.30073305999166    0.59965568233693
O          -2.91912709282511    0.32063641551643   -0.39066717767681
H          -2.77519360460496    1.06381210722792   -1.00709227557377
H           0.68580731163523    1.17763657284183    1.23107538029999
O           1.60408859978082    0.84970335662194    1.33168838945446
H           1.92884710385677    0.80556311350147    0.41088410496345
H           1.29179818433499   -0.64893835926963    1.69337276345328
O           1.70296269744076    0.49745686673959   -1.35407410470466
H           0.77650667464097    0.17407466348263   -1.26505859262399
H           1.65577427193472    1.26337548582937   -1.92791576192935
O          -1.89498731844448    2.53042393925322   -1.47694390281166
H          -2.32971921045166    3.35183323403928   -1.23731079032534
H          -1.36394563220039    2.25975334632285   -0.69744065304654
O           1.20908428377703   -2.40039789262076   -0.81170917059812
H           0.37817708365884   -1.91908615823475   -1.00204210895650
H           1.89579863331987   -1.85955108564134   -1.21568420073506
N           0.85017274524312   -1.62501895596664    1.70059807033714
H          -0.19526839410878   -1.45070941686666    1.64120384798250
H           1.09789094571100   -2.16559289750701    2.52169949767678
H           1.11690523657550   -2.10604541282058    0.80003204552180
