    23
        -45.37164083  Gyration_radius:  2.38012776071 Dipole_moment: 5.935
 S           1.25866919395489    0.48441027630370   -0.53291923856154
O           0.68671874124979   -0.61138839230979   -1.31933975652545
O           2.10249129263999    0.01937581287588    0.54996962532314
O           0.21494714461465    1.39208356653212   -0.06861745905158
O           2.15259884502913    1.28785686402498   -1.54421853315398
H           2.51855644159848    1.99647928910578   -0.98121842381498
H          -1.36149140295708    1.10207751617680    0.41165590193561
O           0.81046258169595   -2.25209322336647    0.94630561566204
H           0.77021603097831   -2.45739625935891    0.00811927436637
H           1.37861668884455   -1.45510457381900    0.97948340593494
O           2.50872324404585    2.70041988817190    0.66971899971154
H           2.72639252806965    1.83489195202084    1.04371479329751
H           1.54284169344562    2.72900260440542    0.67660145269171
O          -1.59411779549154   -1.53058456676533    1.82680523065851
H          -0.71132303631265   -1.83356627066713    1.50211528410790
H          -1.53042625929763   -1.52628137717518    2.78294232432856
O          -2.24292684244628    0.66818674827798    0.48536376239000
H          -2.10079183866397   -0.09420331905931    1.09481141907971
H          -2.16834622347745    0.01490590731586   -0.80256342979602
N          -1.85109808752235   -0.50498443381211   -1.73964172078844
H          -0.77495173760179   -0.55543137260029   -1.63542754043721
H          -2.09496300221207    0.03201702748429   -2.56470180112288
H          -2.24079819017407   -1.44067365377454   -1.78895916623669
