    23
        -45.35484659  Gyration_radius:  2.34551017554 Dipole_moment: 3.052
 S          -1.60083848449166   -0.97524435752653    0.65595948646024
O          -1.51453926751702   -0.53605728290724    2.00107969684103
O          -0.44977568496498   -1.66659832504716    0.12861058661119
O          -2.00618773366401    0.13906704324396   -0.30325777853394
O          -2.82996036892450   -1.93953491128373    0.51602176079976
H          -2.84753049379241   -2.20534525146942   -0.40036299264049
H          -1.33831885726676    0.96370250947833   -0.30106872678342
O          -0.43376424839550    2.05234235813911   -0.39812686905561
H          -0.81206453950831    2.69818465347899   -0.99945452399293
H           0.37459542502718    1.63841932495041   -0.89656890480996
O           0.11020095473935   -1.33158788999079   -2.46911738051151
H          -0.11210480187120   -1.49884619433704   -1.53317192163072
H           0.76630154562421   -1.98920366748971   -2.70931619293282
O           1.44509904970809    0.89987996641881   -1.63799473616919
H           1.88942077375173    0.40121912843406   -0.90388818602777
H           0.97457831001356    0.21266211785136   -2.14794408166808
O           2.13493634110670   -0.57852360052916    0.43454216732258
H           1.90814982292776    0.04079749972798    1.16579554365826
H           1.38243645345441   -1.18311869626293    0.39598200969909
N           0.94124184485892    1.07393494533807    2.22161577020069
H           0.11918613977526    0.49743986157759    2.38107791116025
H           0.63630873191288    1.87418456053736    1.67972454610486
H           1.26262907750811    1.41222620765906    3.11986281589344
