    23
        -45.36358246  Gyration_radius:  2.40194779244 Dipole_moment: 2.450
 S          -1.15949506881681    0.06002639839748    0.18417820753646
O          -1.67555044981533   -1.23373919359435   -0.19127376819203
O           0.12772040081858   -0.05869633260846    0.89236660138019
O          -2.14822613412117    0.75984880819322    1.15980547240166
O          -1.01923183385353    0.96442379294464   -0.96216377173673
H           0.10477076135950    1.72491514102754   -1.23172300040821
H          -2.32785697742205    0.06480208306321    1.85120826861890
O           1.97037435106812    0.12753289642069   -2.70009570980227
H           1.55305720064734    0.00423788874913   -3.55477350254123
H           1.63095654961967   -0.60375171983208   -2.11705867678164
O           1.98812011452945    1.73074749825597    0.89641753815296
H           1.25173485633126    1.07906301529445    1.04602210750767
H           2.80474487834076    1.22996207244451    0.95481463274460
O           1.07773852056864    2.14763982718499   -1.43684854933777
H           1.53659203669658    2.12303679481706   -0.51846641010833
H           1.51730894168863    1.41158647798341   -2.00588854422031
O           0.89544780514956   -1.64273493957739   -1.07844606106007
H          -0.02112588767251   -1.89587923352033   -1.24674700840021
H           0.82342218195498   -1.15797718391736   -0.23388625524157
N          -2.28495265919136   -1.44914085276181    2.55870888236758
H          -2.14048866678545   -1.83969659630793    1.62996167240562
H          -3.05684425462139   -1.93094065353682    3.00143124562236
H          -1.44821666647608   -1.61526600914248    3.10245659907921
