    23
        -45.35840393  Gyration_radius:  2.37664194094 Dipole_moment: 2.545
 S           0.76925360283399    0.91003687434514    1.52683090835100
O           1.49418493322698   -0.12659713041922    0.78651555097828
O          -0.50489768451349    0.47680960559026    2.00445416304962
O           0.74219191338339    2.14891954968602    0.73215592419910
O           1.66353595686495    1.26424801539541    2.78175362637508
H           2.39722216465057    1.71455708798491    2.37669277896600
H           0.58591700687558    2.05705718249168   -0.64849865146539
O          -1.53186448993627    0.36220629020628   -1.85156162062823
H          -1.14304643686680   -0.41516804088733   -1.33743945784008
H          -1.80618033183482    0.02281983911067   -2.70499427647737
O           0.50645485250446    1.84234482433994   -1.69846661030229
H           1.22947674232404    1.12799563009675   -1.85179269220045
H          -0.39443664524901    1.34413105453559   -1.80379119865733
O          -0.35832071014366   -1.54074391359776   -0.57105725981769
H           0.31485331286408   -1.11192837454488   -0.00831536899881
H          -1.04425040347137   -1.83708698065169    0.07709917953931
O           2.14818908657367   -0.10412156086272   -1.73575493912720
H           1.72549876596259   -0.91673327814168   -2.02930203715473
H           2.10848509874050   -0.14304046131811   -0.74994973287282
N          -2.11100777953384   -1.85193370003824    1.43699300127695
H          -3.09500783238476   -1.64465113761772    1.31930598220104
H          -1.66544282735056   -1.00947358894916    1.80256083309188
H          -2.03080829546057   -2.56964779678723    2.14656190752348
