    23
        -45.38134550  Gyration_radius:  2.27238566562 Dipole_moment: 3.502
 S          -0.47368535957300    1.24346139007055    1.14815614841347
O          -0.92160507808949    0.13259338676503    1.97558859414283
O          -1.29840383904417    1.36037741683781   -0.05447659972525
O           0.93956779653684    1.20591312674005    0.86148594647115
O          -0.72953151152265    2.56164318442462    1.98589210722345
H          -1.65595217381823    2.50151210793658    2.19535092543573
H           1.65306439349972    0.77670423642353   -0.66041887022239
O           1.28533953365898   -1.28161268528757    1.98678050134773
H           0.41767886174397   -0.84036577982488    2.13752194895242
H           1.89459897839275   -0.54083315109589    1.89678687361148
O          -0.43448241610259    1.39845609007215   -2.58024569305783
H          -0.76267526710284    1.52699258587520   -1.66712468991821
H          -1.15736234463489    0.99896646443808   -3.06671154254455
O          -1.79604838699121   -1.20284745083069   -0.27970521619694
H          -1.96194035177565   -1.37416385825970    0.65341702884133
H          -1.70689839607083   -0.22318539357460   -0.31142178640927
O           1.77571959172822    0.30485497335762   -1.50947669701161
H           1.11873306873754    0.71802199551528   -2.10461610544859
H           1.23434086762072   -1.06068843623859   -1.05260624932182
N           0.76766930862182   -1.88683786328865   -0.53837945554777
H           1.05912325981260   -1.80249200136514    0.47886733804422
H           1.02852399730755   -2.78214081272126   -0.93528305755953
H          -0.27577454287041   -1.73432953593026   -0.55938142952308
