    23
        -45.37816696  Gyration_radius:  2.38421115719 Dipole_moment: 1.924
 S          -0.12857732861647    0.17797657648144   -2.06412597905387
O          -0.33838644931984   -0.99561101588801   -1.21954902396584
O           1.25144283554123    0.62275082021023   -2.08483510562036
O          -1.05888223771465    1.23996448802751   -1.73901477067546
O          -0.46402546233621   -0.30613031355173   -3.53611060501619
H          -0.19014908586222    0.44216943240342   -4.05605195814879
H          -0.88658165637255    2.00533647905722   -0.22084381864063
O           1.52463603653043   -1.41616311808533    0.72293935436838
H           1.84226066240664   -0.50081422724630    0.77705479240261
H           0.96319494791076   -1.43186228287788   -0.07302217033008
O          -0.69999991227246    2.07098325497304    0.74074456085208
H          -1.35938324824044    0.67407777915220    1.03877701917075
H           0.26251807883046    1.94212693588763    0.81057159078456
O          -0.25475099249836   -1.85682371164778    2.60098427214535
H          -0.36226711668480   -2.80597125832093    2.67546212501197
H           0.52409831178503   -1.71843833319863    1.99650448846136
O           1.89838965169956    1.30153061434705    0.32985088685094
H           2.70473889748233    1.81967935821882    0.31263003952202
H           1.69785024383535    1.07292781510447   -0.61516495747829
N          -1.68614040693425   -0.34208017144303    0.94320568934696
H          -1.27711692973637   -0.66527941253486    0.02384621045835
H          -2.69813404091450   -0.39734012572568    0.93049737085038
H          -1.26473480848676   -0.93300958337029    1.70564996866060
