    26
        -50.46214719  Gyration_radius:  2.46098916334 Dipole_moment: 6.842
 S          -0.12023176820799    1.88979196228406   -0.75753608553299
O           1.14488521025237    1.56883844773203   -0.10575668262939
O          -0.22211497143300    1.16271495804388   -2.02542349679948
O          -1.25569083568729    1.70843489709870    0.10420145912996
O          -0.06428970674555    3.41975279154113   -1.14363475573225
H           0.62193993223679    3.42030291358062   -1.80131972701400
O          -0.72843468144402   -2.22864877418292    0.11838589475331
H          -1.04183844847057   -3.10229322870155    0.35414723111199
O           2.92338424553863   -0.41365444759689   -0.23182708986581
H           2.72558399282705   -0.75018571620817    0.65324995932493
H           2.54897103131051    0.48860902606975   -0.22029372367448
O           0.82274380138054   -0.45777877701905    1.68642008635063
H           0.84435438718974    0.34339966752088    1.13165808141460
H           0.30481022235566   -1.11962054348991    1.20438516367007
O          -1.58369353657075    0.54838012720199    2.69812625968122
H          -0.69070208042288    0.16671909814025    2.67450794501454
H          -1.55045806197364    1.29114738517223    2.08125988976941
O          -2.63987724939674   -0.56403927729105    0.48126994895909
H          -1.52472994793495   -1.60788950725172    0.21742893298446
H          -2.53975390920085   -0.36899847790666    1.43716239269774
H          -2.32674158570342    0.26319768940265    0.07295395057036
N           0.87624473581297   -1.15359931305391   -1.74381855751111
H           0.23663798489505   -1.70299253491540   -1.12965189917821
H           1.04984461660027   -1.63603552541665   -2.61885773836810
H           0.41053891111251   -0.20000307697562   -1.92334653488374
H           1.77861771167472   -0.96554977378398   -1.21369088423960
