    26
        -50.46132074  Gyration_radius:  2.42862690586 Dipole_moment: 3.755
 S          -1.49435049105978    0.95422049248018   -0.94244784132281
O          -0.54945885799246    2.00505125540614   -0.60843068938886
O          -0.83200333826477   -0.15397756532254   -1.62899314738995
O          -2.28964005929868    0.49369333083418    0.17052772388850
O          -2.50097322630654    1.58352371278418   -1.98658002232105
H          -1.91904133314013    2.02196472289320   -2.59879203474661
O           1.64587050249376   -0.87593712841003    1.55415805958380
H           2.35822441197431   -1.45645872722215    1.82238195024464
O           2.08595821087139    2.13142338688337   -1.02477896743914
H           2.42991383441658    2.69839874430649   -0.33266081728918
H           1.11169438210180    2.16018300943949   -0.93382214832752
O          -0.79794965305428   -2.65968050403465   -0.79797310472470
H          -0.96261252912167   -1.79207669281800   -1.23133246008874
H           0.09846600592698   -2.89481915118302   -1.05118200674782
O          -0.09859053709398    1.31711086219985    2.01089910722092
H           0.78333619274983    0.94089682041724    1.92683055822207
H          -0.32616970370587    1.69051279105557    1.14713955991411
O           1.73600607720466   -0.55497035300342   -1.02310473306893
H           0.81190407504602   -0.43746046070791   -1.32388356637342
H           2.12200713957461    0.33477378840038   -1.12489513115792
H           1.72497677833530   -0.76890079104563    0.56186258225653
N          -1.02984294705777   -1.36314500572699    1.50926137905272
H          -0.99193893321521   -2.06573312010080    0.72466979527305
H          -1.51227588586738   -1.71165010050263    2.33049760395122
H          -0.05403231382504   -1.07312134746407    1.73854452146971
H          -1.54947777169071   -0.52382195956044    1.11210381931057
