    26
        -50.46373160  Gyration_radius:  2.44876931297 Dipole_moment: 3.695
 S          -0.35151744189743   -1.58500116129829   -1.13447716639286
O           0.42752014983927   -1.53619445327025    0.10854876061247
O          -1.55485558971250   -2.34787813892947   -1.00915291282832
O          -0.49519843650882   -0.25425517827318   -1.69927660587442
O           0.58552098872972   -2.36917312247289   -2.17422111716294
H           0.18856558750596   -3.23372492827699   -2.21173872252524
O          -0.19779569803542    2.63707032950471    0.63880162631994
H          -0.20261828586490    3.34058793837939   -0.01153522093076
O           2.03414876626800    0.27887662789647   -2.21938166286873
H           1.06012479165035    0.16150350821445   -2.17866428238051
H           2.36962906150603   -0.56645337727430   -2.52458473151630
O           0.29152460545189    0.67726260450318    2.78496076383610
H          -0.10443959963339    1.51813557470841    2.53926083365055
H          -0.40538950563917    0.01867421983523    2.69916118294369
O          -1.72218267474268   -1.16610184710285    1.61553508209795
H          -0.89626483857939   -1.40653052975276    1.15197668925138
H          -2.36820950040007   -1.80559647524585    1.30481588352582
O          -2.12142142775332    1.00925318040302    0.02234860616881
H          -1.69048396586679    0.59155225300643   -0.74500831044918
H          -2.15477827985176    0.31098846151458    0.70392318582724
H          -1.00396239605994    2.07640645667932    0.43786769570926
N           1.68859244222024    0.74679667031393    0.38715448767506
H           0.98696021763836    1.52874687267818    0.50000072701387
H           1.16366683795825   -0.17177009957789    0.42304773899901
H           2.11740596902275    0.76698994487722   -0.56155350043366
H           2.35545824275249    0.77983464894736    1.15219096974352
