    26
        -50.46630202  Gyration_radius:  2.51385299948 Dipole_moment: 2.584
 S           1.29522567063368    0.84831087937436    1.12924116856778
O           1.41707789703321    0.11119890442742   -0.12017980513410
O           0.75875995312864    2.18031648528112    0.89106090469228
O           0.57902489364603    0.10871430714537    2.14535540730980
O           2.76202049679619    1.05175941242764    1.68532019353806
H           3.13517939790084    1.65562495436681    1.05194555594318
O          -1.79652076251622   -0.56101151047455    1.07281597194710
H          -1.08327517630153   -0.36466704241872    1.70805291114211
O           0.66615962157420   -0.39671319294046   -2.67485026582779
H           1.11666456708313   -0.07006983134804   -1.87765576383519
H           0.34863937418948   -1.27191897165360   -2.42446782496080
O           1.13969020984285   -2.52821084170951    2.04130981040251
H           1.51752476132785   -2.81593984222253    2.87292020130133
H           0.98657523646705   -1.56838272170687    2.12993357158344
O          -1.44661304427928    1.17180571810847   -2.80879432938340
H          -0.60755623867329    0.64380365281372   -2.85846321366623
H          -2.12939431353776    0.62035719993063   -3.19433702967710
O          -0.12786942622689   -2.06260700423183   -0.36525269238147
H          -1.39514154712999   -1.24113365441026    0.48250091230169
H           0.49465903816055   -1.31141411216518   -0.27883850060175
H           0.18398838640338   -2.68364731320107    0.30543047721042
N          -1.57778937796842    1.71305949019770   -0.19176870636885
H          -1.80246197091358    0.78091709034624    0.29265648156812
H          -2.26953091498096    2.41837567606754    0.03988271595841
H          -0.62952586168493    2.00408566853692    0.17971077667289
H          -1.53551087000369    1.56738659942467   -1.23352893831386
