    26
        -50.47116845  Gyration_radius:  2.45855549378 Dipole_moment: 2.535
 S          -0.39932623359231   -2.19619446251438    0.37272147656617
O           0.46336047790996   -2.89879775351555   -0.53284162455714
O           0.34558367676210   -1.47813407712506    1.41844083438974
O          -1.36020685343125   -1.30721976481973   -0.25856821253941
O          -1.24367810869246   -3.30656352058292    1.13767322121038
H          -0.87907734311469   -4.11082901181988    0.78210532257641
O          -0.41963968986589    2.19064149244767   -1.56934216192736
H          -0.53771855159808    2.73072295529257   -2.35100473073000
O          -2.22350327817880    1.18526556532634    0.26106624451198
H          -2.12932191994209    0.23982836479496    0.03066173251028
H          -1.76689349486079    1.66686068438370   -0.45245334943989
O           1.58845512550640    2.02498006109429    0.28582163904855
H           0.96088138261110    2.24576152185125   -0.42857993781302
H           2.02073859421119    1.20174898530660    0.01326427088618
O           2.14987963518712   -0.65134482063829   -0.34412628856700
H           2.59763787105056   -1.42861516539765   -0.68631336599005
H           1.54743459315465   -0.99790927662301    0.34667194195384
O           0.13698108925958   -0.26442247044972   -2.20148178774107
H           0.98729716598878   -0.42823323017500   -1.75939314552071
H          -0.50747132083794   -0.76724987584150   -1.66912214905940
H          -0.22543133657075    1.26245859240034   -1.89361609153142
N          -0.22250518749296    1.03277722700677    1.93480823043009
H           0.55929521223334    1.52972675741907    1.41495822827189
H          -0.02578310159078   -0.00153969846911    1.85884224978702
H          -0.28999606717858    1.32706286957885    2.90173436440034
H          -1.12699232692124    1.19921808106906    1.38807306887153
