    26
        -50.46911895  Gyration_radius:  2.45458340849 Dipole_moment: 4.022
 S          -0.44611993449638   -2.12703490641393    0.53861261507242
O          -1.45249811112207   -2.57752545563561   -0.37827979561560
O           0.84497123065085   -1.84084496138007   -0.09819423145235
O          -0.85340599198286   -1.00074407288198    1.36727278494351
O          -0.17334631701849   -3.33654868758117    1.53651957986844
H          -0.61791059253347   -4.05950849382344    1.10489742646566
O           1.26862900969284    1.75019712139870   -1.61323623894326
H           1.64823394655327    2.13024461082085   -2.40570934351595
O          -2.26650975658990    0.11346072666358   -0.55840701469590
H          -2.90744526125084   -0.54591345028327   -0.83492648585303
H          -1.82085566815918   -0.28537686848296    0.21989006671425
O          -0.87200187820137    2.49430177218124    0.09510202100287
H          -1.54045164703940    1.85008242302457   -0.17365686549483
H          -0.15499885508339    2.42089434819913   -0.55164948851352
O           0.19366541374915    1.30876731167355    2.24117242162142
H          -0.26621118637839    1.90754745467749    1.60645600777254
H          -0.31273204660474    0.47722233550211    2.20383891869846
O          -0.11230730969888   -0.37079089176453   -2.15230984498534
H           0.73947727727241    0.94837529830210   -1.90773622175297
H           0.25445976479810   -1.07137404998430   -1.58592230066923
H          -0.99121267889966   -0.18048246697803   -1.77046134107905
N           2.00079615287680    0.40180657385352    0.62560213150721
H           1.59845414023480   -0.54867647839083    0.37827871383999
H           2.95711325323102    0.31571562239086    0.94966419710240
H           1.93567446441824    0.99959654223952   -0.22127352029056
H           1.34653260158072    0.82660862266991    1.38445579825412
