    26
        -50.46603975  Gyration_radius:  2.42510040303 Dipole_moment: 5.931
 S           0.28241113884428   -1.94536636669813    0.58502412165707
O          -0.91665849025984   -1.22066765136452    0.96437063465083
O           0.18087742544964   -2.68432873490612   -0.64313058407142
O           1.43149160881888   -1.03126778844734    0.62519418014408
O           0.54128235521642   -3.01894217148365    1.72199117145803
H           0.76334932485103   -3.77456034178606    1.18965086061529
O           0.54551490579689    2.27538842581841   -0.92582173340495
H           0.72585181865400    3.03171900660710   -1.48408752637860
O          -0.55487549562488   -1.00570955943221   -2.63702971573307
H          -0.39277441848779   -1.75800272981990   -2.04066238584020
H          -1.25133069486085   -0.47406577523785   -2.22199522011641
O          -1.80594967877968    0.69062963655150   -0.73471395262026
H          -1.05614345517721    1.29218060994510   -0.85390211764178
H          -1.49674907042586   -0.05447415845858   -0.18794564615377
O          -1.86406118515314    0.97888239349831    2.13208615070751
H          -2.31041860712470    1.26290988521371    1.32160613026794
H          -1.76831865788321    0.01695085660993    2.02066373624648
O           1.68413977399092    0.16036306712392   -1.81125373099576
H           1.77891209430038   -0.37634320009646   -1.00565374206228
H           0.95546348025502   -0.27049141243243   -2.31964337497150
H           1.04009367926335    1.49095253781638   -1.33734055193615
N           0.70888736533801    1.29859094142242    1.54979522928303
H           1.02777950759664    0.32085428513108    1.26034170208838
H           0.72945894752501    1.87944889228732    0.68172913967961
H          -0.29879769400440    1.23840843883061    1.88591743871721
H           1.32056401188542    1.67694091332767    2.26480980640286
