    26
        -50.46371163  Gyration_radius:  2.50884744313 Dipole_moment: 6.022
 S          -0.25678886999035   -1.86130210681870   -0.53141933551695
O           1.00250994290086   -1.31378505235075   -1.02227269674811
O          -0.06312380570547   -2.49312411562125    0.76979575118868
O          -1.33085932555896   -0.89390421778980   -0.53737199615423
O          -0.67924182236352   -3.00421671862698   -1.53087705379251
H           0.04564785400959   -3.61669023990089   -1.46413157219331
O           3.02756078116203   -0.26274548101076    0.38732801228455
H           2.48549901038271   -0.79649052020335   -0.22744593471306
O          -1.46074152177025    1.39771863992285   -2.16316443725696
H          -1.55819026539577    0.50335042572180   -1.80328858200276
H          -1.99679131991020    1.96679531892191   -1.58468163058464
O          -2.75458412700753    2.50337554350508    0.04568936734030
H          -2.02073591386333    2.18480651550517    0.59648240712904
H          -3.50923711354713    1.94827206686314    0.24908898137708
O          -0.57562551976586    1.06304874638942    1.06233970056623
H          -1.02270134042755    0.33515318298287    0.57580466444742
H           0.05464489422795    1.41159398802143    0.37379827294873
O           0.96449675088042    1.39423455502271   -1.02947250528299
H           2.98941435906227    0.63073369850018    0.02951445135467
H           1.03133235618554    0.43163093734766   -1.17127252130864
H           0.22165368215152    1.65164424492665   -1.61675655943175
N           1.09433810840117   -0.63452997864358    2.15847925281821
H           1.99278221874371   -0.45604935597474    1.62987463420393
H           1.24590474497969   -0.75412038494614    3.15382278115378
H           0.42437278611913    0.16022693884923    1.93523690166903
H           0.64846344608637   -1.49562661060507    1.71489964648710
