    26
        -50.46603977  Gyration_radius:  2.42529706951 Dipole_moment: 5.950
 S           1.31820049992825   -1.57044549230611   -0.05528638888526
O           0.81058329792576   -2.39909043506683   -1.11381611330258
O           1.72948232132930   -0.23957734130345   -0.46394899800315
O           0.40796439982083   -1.46261710071364    1.09233855177473
O           2.61695208973321   -2.29973438363296    0.48661530475390
H           2.51152859650124   -3.15061332774534    0.07604155367455
O          -2.08530063047089    1.29745711959878    0.54933734996432
H          -2.96713238320761    1.66859782705426    0.57857349340298
O          -1.24668733726683   -1.12846878972721   -2.33541525134247
H          -0.91748755493615   -0.21986580632488   -2.41537635937835
H          -0.47977663158828   -1.67665113312517   -2.09227968303934
O          -0.16212247318569    1.36951526408515   -1.54351972474928
H          -0.86648586097655    1.41140656263715   -0.87999874163532
H           0.50519624080970    0.73761057648141   -1.21949393807095
O           1.88280866560580    2.31445093757435    0.27101743196306
H           1.31850549084465    2.60705117398221   -0.45828641182058
H           2.23923752797571    1.46228530478781   -0.03634213718881
O          -2.14241656560095   -1.23228950038558    0.16214785859907
H          -2.00492398894886   -1.29668468926077   -0.81375227331834
H          -1.30009001611583   -1.52107487961279    0.55334191704880
H          -2.19889721150448    0.29934379618976    0.40648059021041
N           0.20933714167696    1.01744693660854    1.87660307069956
H           0.29971413706648    1.15212974399006    2.87770831187672
H           0.35977439038357   -0.00861019990918    1.61965142511698
H          -0.74954108429602    1.26299095821185    1.54209155630541
H           0.91157696849351    1.60543684790839    1.33556761534117
