    26
        -50.47086750  Gyration_radius:  2.41844306309 Dipole_moment: 5.110
 S          -0.57161569082045   -1.61794015682167    0.49070898244806
O          -1.43048313630318   -0.43268463392789    0.45177770654498
O           0.49606823175089   -1.49233517557415   -0.51669446851791
O          -0.04348636301216   -1.88811943602393    1.79625791911814
O          -1.45757541105124   -2.82910255600180    0.04002221385355
H          -1.88284454547936   -2.50987300915443   -0.77096596202239
O           0.87684345052912    2.23007040412729   -0.92891911223343
H           1.09278865913036    2.96132786888639   -1.50895111025063
O          -2.62103906228572   -1.08509163736484   -1.72339943166402
H          -3.57687007993556   -1.02760433321978   -1.67112188062465
H          -2.26788381959702   -0.66910676424448   -0.89955043897701
O          -0.49582426568431    1.82827506156914    1.55816008423367
H          -0.08794500823983    2.21790169483097    0.77417721088508
H          -0.98462135526050    1.05187761394320    1.22727950201370
O           1.27546164177444    0.23975665413857    2.75177723039060
H           0.79720216632518   -0.60787565472307    2.64421506270652
H           0.59854949900187    0.93428766025150    2.57918949139761
O          -0.16435103616055    0.28524160568632   -2.36600902801501
H           0.40270277969734    1.56112080180472   -1.48998165687036
H           0.12180391111788   -0.44645558065990   -1.77877148313718
H          -1.09781209569880    0.10876546061191   -2.52563063833686
N           2.24069623309600    0.24636414056501    0.36287309858387
H           1.92028142920913    1.11879627832201   -0.10004453950461
H           3.22814549270066    0.07762798809439    0.20838729806231
H           1.98327737335452    0.28535293317743    1.42340687463614
H           1.64853101182733   -0.54057723833891   -0.02819292473120
