    26
        -50.46161859  Gyration_radius:  2.73516885677 Dipole_moment: 3.825
 S          -0.06830230005050   -1.82306675287254   -1.74795770863895
O          -1.25930530489282   -2.43452503706576   -1.17646609918932
O          -0.36952576927684   -0.51902884851603   -2.33470067984501
O           1.03773504614542   -1.76664690201064   -0.81845930699911
O           0.38685053037750   -2.75485952501844   -2.94612099790549
H          -0.38036768483858   -2.74367886198528   -3.50958986001094
O           1.72899419701838    0.11090783269478    0.99518142199454
H           1.91735238530727   -0.43876709983527    0.21589712050537
O          -2.26026925646895   -1.12705984129239    0.81224420389510
H          -3.17635227301695   -1.37995618999191    0.93308556843795
H          -1.92450304260147   -1.67013070195589    0.04690076024924
O          -0.38920690895455    3.53927445948194    0.01074168210341
H          -0.19903510942303    4.04891058573828   -0.77822800497831
H           0.46695220902535    3.42220169929389    0.47439559488619
O           1.95249580525554    2.85836327172326    1.18328343765411
H           2.02648289562923    1.89157893407662    1.10320715947845
H           2.17598411943559    3.07155401185495    2.09050208415578
O           0.26191491183847   -1.93942010932248    1.81989212739434
H          -0.68316494454668   -1.74405857598793    1.76700685267868
H           0.51388157884278   -2.21093141213866    0.92090071220092
H           1.33883699474128   -0.54099252008055    1.61956776063587
N          -0.63582780008816    0.84815239328611   -0.13331974698215
H          -0.75942313005175    1.88177611906894   -0.15597140905582
H          -1.40813134113977    0.36155895803488    0.34856877447865
H          -0.55587423696739    0.42543841195073   -1.10242528994253
H           0.26180841870287    0.63340571086480    0.36186384279147
