    26
        -50.46161848  Gyration_radius:  2.73527703908 Dipole_moment: 3.822
 S          -2.31483269501020   -0.93510609346803   -0.39024201471011
O          -2.08434801981353   -0.67579133206589    1.02932248879225
O          -2.76726595079099    0.26363198966327   -1.08108664988243
O          -1.17658594394320   -1.55771686651808   -1.02834591648111
O          -3.50764889140109   -1.97573500702605   -0.46370345473152
H          -4.21119033966357   -1.50303974520670   -0.03027273134569
O           1.47362589246503   -1.14999736391886   -0.70554165888317
H           0.68710401885793   -1.72107631332776   -0.69577483555026
O           3.30887884658011   -0.81221248162213    1.33204384084655
H           2.71677920969234   -1.07448561867066    0.60603289496652
H           4.15749517844030   -0.61854981664156    0.93112820657722
O          -1.02890310324939    2.17221501962645   -1.12139914799709
H          -1.47138810834714    3.00486353884934   -1.29075370953764
H          -1.74175901848851    1.47571396780353   -1.13167649661508
O           1.91996407444551    0.95000949523763    2.84456469246631
H           2.52956097915557    0.34191494199518    2.37527409718309
H           1.74801390823092    0.55061485113142    3.69854904457491
O           0.23941264893683    0.15511214566777   -2.65725148692816
H          -0.07360719987173    1.02077677596446   -2.36256359896631
H           1.36445557933337   -0.66076558545292   -1.55160806487028
H          -0.44181720068420   -0.47294832343913   -2.36244922581163
N           0.14071074917378    0.66343391134017    0.82561243338389
H          -0.74930269375432    0.13755230191763    1.06151471239363
H           0.73123950058396    0.01223440824510    0.25615605910378
H          -0.12796450563949    1.46961731946047    0.23970731723632
H           0.67937306478858    0.93973388046380    1.67276320477857
