    26
        -50.46627168  Gyration_radius:  2.44605580424 Dipole_moment: 6.899
 S           1.75789916132406    0.55361327006382    0.75394809260830
O           0.90950947438428    1.61980130143261    0.24100669635335
O           1.71412294802332    0.37272432966940    2.17627283235408
O           1.51445909038831   -0.67841351851663   -0.00432735399115
O           3.24907514739739    0.97634074535840    0.41466574469572
H           3.64537768362145    0.88457168065642    1.27375457013221
O          -2.15052102181120   -1.03767972149049   -0.80489222368399
H          -3.09796180478139   -1.08107218436439   -0.93578879403546
O          -0.34958444081058   -2.47757751678407    0.91751292246346
H           0.43150035907262   -1.96988979539661    0.64502033334463
H          -1.06008081558035   -2.21226621563894    0.31898623761832
O          -0.74754359697233   -0.58317230710384    2.85651151151921
H          -0.68310968433679   -1.44055890436559    2.39522720744477
H           0.15506986666146   -0.22303786483248    2.83952905494293
O           0.18956559093522    2.22634473135346   -2.19680177645808
H          -0.59247876839214    2.77123175944715   -2.08565893354774
H           0.58273598111807    2.14478957003727   -1.29597352047170
O          -1.61009678925442    0.86172515767799    0.83421212645102
H          -0.74245008223019    1.25423780144825    0.63159487738320
H          -1.99119798011026   -0.28494399272335   -0.14457607727447
H          -1.46214646368389    0.38847600233877    1.69352423508118
N           0.06354304191980   -0.42388559068486   -2.13760289913588
H           0.05079360343877    0.60934516675288   -2.34462110570005
H           0.37456198912454   -0.96845753612605   -2.93430133843676
H           0.72901070411097   -0.55216325006211   -1.30747286626519
H          -0.88005320344380   -0.73008313807266   -1.79974957339076
