    26
        -50.45966275  Gyration_radius:  2.59343369059 Dipole_moment: 3.921
 S           0.31879920325042   -2.37478908860393    0.41151688211651
O           0.26028676642364   -1.64399729544493    1.67635721828334
O          -1.00112749017186   -2.66126171238126   -0.11788106474075
O           1.21111532977993   -1.72564612209669   -0.52105841064632
O           0.96271938632300   -3.79056033315022    0.74609162709064
H           0.23830650468582   -4.24809712989864    1.16126506338984
O           1.15363036001158    1.53224813665835   -1.32425481764034
H           1.92862192524147    1.78985943805846   -1.82445095586384
O          -2.19062143802464   -0.48920997018954   -0.88241506348281
H          -1.76326134823144   -1.31265376513664   -0.53232625555645
H          -3.11933848730850   -0.70083803336993   -0.98899213942840
O          -1.38631780477989    2.06168649146601   -0.20108061414900
H          -1.76083122073652    1.17746191372399   -0.35699159052794
H          -0.57276075938109    2.08639974930001   -0.72311126637755
O          -0.33177688251918    2.50895948608704    2.17051966859022
H          -0.19291451240550    3.45510329755654    2.22903989409546
H          -0.88748745686780    2.36174029269823    1.36300549261539
O           0.04510139702918   -0.46642043124368   -2.52377141614163
H           0.50622026358059   -1.09940172459165   -1.93365980772912
H          -0.87069147876865   -0.45357747783931   -2.20327414903606
H           0.73023725815167    0.78460220824122   -1.85167938343719
N           1.36198172101830    0.64970286703149    1.24738224074979
H           0.79042237628097    1.37932952414472    1.74177699670855
H           1.34772162758740    0.86018220948032    0.22259748358590
H           2.31559224241858    0.62826682593432    1.59177373457859
H           0.90637249802376   -0.30908935653311    1.42362061285291
