    26
        -50.45966267  Gyration_radius:  2.59341115633 Dipole_moment: 3.921
 S           1.02930169132263   -1.97178166011761    0.98144523370686
O           1.52455965102503   -0.76155870413660    1.63514096377756
O          -0.25155392124144   -2.39731420337303    1.51324121692527
O           1.06648477683371   -1.83609333115365   -0.45642874445695
O           2.05434682300208   -3.12965196974284    1.35522059511905
H           1.81562009090151   -3.32696445253197    2.25553966161534
O          -0.17807858125694    0.74650573459944   -2.20084444043576
H           0.09878463581410    0.72325395946540   -3.11735030419794
O          -1.68799120188810    1.83267533490702   -0.07167476993255
H          -1.87020090926276    0.98758956439324    0.37451587905295
H          -1.34020262580289    1.58912997113692   -0.94043518439802
O           0.37928566927502    3.21618738302165    0.79360943639760
H           0.30522434804249    4.08588689550714    0.39860908489126
H          -0.48213975814515    2.75897908347503    0.61597613906137
O          -2.12424001017814   -0.71875031626473    0.88634009259891
H          -2.87348547510725   -0.91028582681344    1.45255961808943
H          -1.39920762224765   -1.32773660005767    1.18072320080409
O          -1.27433761139595   -1.51943238137310   -1.62973810466949
H          -1.82526932033184   -1.32467261244760   -0.85509426276230
H          -0.63891067176631   -0.13513999462476   -2.03747341565893
H          -0.43106520441080   -1.85384146277942   -1.25745412785943
N           1.63383352869434    1.06189109343303   -0.18750883152343
H           2.59036509911917    1.14647881313327   -0.51362133780654
H           0.99880713496063    0.80607342809773   -0.97871351830608
H           1.59026936018161    0.29817834530110    0.56929357314147
H           1.28980010387080    1.96039391893215    0.23412237684157
