    26
        -50.45966275  Gyration_radius:  2.59346266707 Dipole_moment: 3.922
 S           0.19608402114917   -1.20552679035915   -2.10227607874556
O          -0.09751018635307    0.00618162651369   -2.84395943370533
O           1.49311840550419   -1.14184332258949   -1.43082604679031
O          -0.84271572654262   -1.61370626686275   -1.18491440886313
O           0.31697866578447   -2.35701468199263   -3.19334584331657
H           0.82951608111879   -1.93474401406642   -3.87559990889163
O          -1.41625865161059   -0.26178983658719    1.83253314825164
H          -2.03347824995386   -0.78496484294025    2.34487546566313
O          -0.49118110421016    2.00666020782561   -1.24377582653429
H          -0.43672997463014    2.80392658269634   -1.77298283620988
H          -0.27838431668014    1.25817439061493   -1.85833653256007
O           2.34704655075599    0.76212092754597    2.24199784364419
H           2.43869067441588    0.95583171297859    3.17578908372166
H           1.64799145743584    1.37650682883029    1.90069493308679
O           0.18689301069429    2.03227919220961    1.43148239455355
H          -0.47369974186087    1.39741876989161    1.74061848744616
H           0.04781777215664    2.09541395261543    0.47070055738555
O          -2.51278936964291    0.28647120738062   -0.43889611460098
H          -1.90199567187378   -0.03349523807414    0.97912478754689
H          -2.02847139699014    1.06734999536911   -0.75068773442209
H          -2.05875985737341   -0.47290336795535   -0.86166366160518
N           1.01277372415882   -1.26208958739135    1.10168631299975
H           1.20964567837031   -1.21563121655648    0.04480270550375
H           1.64874037208560   -0.57877020212895    1.58332117736780
H           0.02335704221669   -0.97572174418054    1.28564401032690
H           1.17332081186661   -2.21013428281784    1.42399352870619
