    26
        -50.46723193  Gyration_radius:  2.51577562194 Dipole_moment: 1.964
 S          -0.38619563774561   -1.93159790481623   -0.57412161953957
O          -0.40310879722723   -1.51596673402072    0.82255876018808
O          -1.62782015895865   -1.60009940620464   -1.24376470929134
O           0.80148106914436   -1.45181268001317   -1.25616072464212
O          -0.28506834750583   -3.51253076878455   -0.58634850495511
H          -1.18366527827461   -3.78204096274374   -0.42541669800159
O          -0.35512180535400    2.08255486241793   -1.06008974383492
H          -0.54427682236917    1.57462465916014   -1.88220486175149
O          -0.71238154997063    0.22012485355400   -2.94249193444461
H           0.13605026736571   -0.20214767163349   -3.10102766273734
H          -1.20130050505054   -0.43527999334949   -2.40454714027566
O           2.07305814592173    1.16432362810036    2.30952201641221
H           2.06658123560883    2.05892360408936    2.65362949381667
H           1.25779092091798    0.72728527285794    2.66420235808155
O          -0.25108416941333    0.10287747962475    2.98315846742429
H          -0.97267588281196    0.64523151164115    2.64805093282737
H          -0.23072975642093   -0.66690254582099    2.39070907286469
O          -1.95453837969188    0.60856293984144    0.53392065378890
H          -0.99925814725214    1.73321375191477   -0.40845789206629
H          -2.66818371360613    0.34692050552007   -0.05313216605893
H          -1.41128678871162   -0.20214598452966    0.63131948552426
N           1.79434683443491    0.80898372630091   -0.33515968879007
H           0.96964628956603    1.44645262750853   -0.62153559338514
H           1.49439414311188   -0.16655710451040   -0.59954527060949
H           2.63749109382274    1.05586956312556   -0.84244458625354
H           1.95585577035103    0.89113275080210    0.69937755570020
