    26
        -50.45865073  Gyration_radius:  2.64737864446 Dipole_moment: 2.966
 S           1.33007993626730   -1.89835750279102   -0.19858439505525
O           2.08328096389896   -0.74274890718751    0.28329510564840
O           0.23567809574745   -2.20638838180453    0.72770579273770
O           0.88507382881527   -1.78963249268766   -1.55878336665187
O           2.33830121264189   -3.11670182613650   -0.11658395449544
H           2.78641312352298   -2.92194912161414    0.69930902922791
O          -0.74492947009823    2.17215658679033   -1.20026502295220
H          -1.62128765245918    2.56036037179957   -1.19303694727385
O          -2.17394612301831   -1.60698863399913   -0.16877633036814
H          -1.26761766979502   -1.88686872768726    0.10028608200870
H          -2.59636234900400   -2.39638248704924   -0.51080500233032
O           1.29393244452991    3.64334795167174    0.21665563079606
H           0.67231624690875    3.36060829588516   -0.46800609038197
H           2.10145339633470    3.89158401500502   -0.23497989966907
O          -1.08818945848586   -0.57878480757739    2.38730090866628
H          -1.93840724461673   -0.67329865596629    1.94491186492735
H          -0.53654199517201   -1.28644120180814    1.99560285188905
O          -1.11708306888847   -0.16188800335304   -2.23429525937375
H          -0.83598120196172    1.31361744547833   -1.71483436353329
H          -0.30505382797633   -0.70410381124161   -2.20042849315910
H          -1.69761713188986   -0.58801644703881   -1.57602259611691
N           0.43424496723732    1.13336013551929    1.02024714309609
H           1.15869164490899    0.42087087673093    0.70157819715676
H          -0.09903472900867    1.46866272946358    0.18783792283344
H          -0.19937690930909    0.64217113266777    1.69722909644402
H           0.90196299087616    1.95181147694195    1.41344211592057
