    26
        -50.46199334  Gyration_radius:  2.60760005979 Dipole_moment: 1.308
 S           0.35422124217256   -1.56606056955147    1.34042855722446
O           0.88185072894721   -1.54212697455765   -0.00653199552256
O           1.37261643967258   -1.60982237216365    2.36253862554662
O          -0.62341587397603   -0.49466188612318    1.54043620265226
O          -0.47583697531629   -2.92646453983508    1.50151937149875
H          -0.05953686082260   -3.35138432295364    2.24569002728791
O          -0.10954264680942    1.36567115535742   -2.24972848908950
H           0.48739415931242    1.36073986912020   -2.99906011774805
O          -2.61859276756443   -1.47093829348135    0.04690281006712
H          -2.58264308412334   -2.40294500937007    0.27266963131368
H          -2.00209650800008   -1.03453805675158    0.66454025730521
O           2.89112458821314    0.12712649963549    1.04768954807806
H           2.46178191369781   -0.46971999419930    1.69656936867988
H           3.04174577332936   -0.43451125132822    0.28159107319724
O          -0.76763687857056    3.60138708879409   -0.57249051836013
H          -0.72478389734968    2.99767540273418   -1.32758192121309
H          -1.67708966963786    3.89517380303236   -0.50891359275092
O          -0.86174158654920   -1.08287036189602   -1.97641241183947
H          -0.15264928649596   -1.35952187655548   -1.36137976743190
H          -1.67897520150068   -1.18134839340057   -1.44975569607289
H          -0.49907469790790    0.43700827683250   -2.20982218613654
N           0.68072669386702    1.44810975250859    0.33844065714222
H           0.46193571926044    2.41952467333898    0.57303164678889
H           0.51348459570999    1.34515126992055   -0.69082801329429
H           1.65138680685635    1.14373922849520    0.60019487343075
H           0.03534726359220    0.78560690239297    0.84026206924431
