    26
        -50.46248941  Gyration_radius:  2.47985327042 Dipole_moment: 4.743
 S           1.85184864544851    0.27078060889052   -0.69977419295774
O           1.59567414247047   -0.89872585802758   -1.53863043321453
O           0.91681931897814    1.34624494264105   -1.00860982916189
O           1.89636924457219   -0.07412452457703    0.69650077017859
O           3.28445317882126    0.80905828482156   -1.10299189811868
H           3.16537412136964    1.04207119013312   -2.01811770386011
O          -1.28311176559485   -0.58393327048611    1.70469886632781
H          -1.84811056665049   -0.86790871892554    2.42397246726290
O          -1.65110723841978    0.57837918882056   -0.80743082929586
H          -1.67154780368699    0.30476204820735    0.12274489081538
H          -0.73663489977415    0.88251703160382   -0.97418918377302
O          -0.11173605544490    3.03016673034700    0.80379822182878
H          -1.01453932037475    3.10043431110493    0.48569369400682
H           0.36724830219531    2.52098943091050    0.12037457204806
O          -1.91736395291206   -1.76132646082253   -1.98994804783665
H          -1.46470054498579   -1.68674774228869   -2.83228724446131
H          -1.97815499231080   -0.83492417553119   -1.63636272459142
O           0.43910819748659    1.08440910170817    2.59973846419424
H           0.23100720988636    1.92699886603324    2.14686821802892
H          -0.62250971497527    0.07330360898944    2.10820911785217
H           1.16395851699004    0.69972159599997    2.07059292974438
N          -0.11763106378108   -2.21807747537376   -0.11419082329157
H          -0.44729195822622   -1.63116388073344    0.68704663335151
H          -0.89872748255345   -2.25234084270141   -0.83148587502624
H           0.68450938042150   -1.72134468173681   -0.61623905012970
H           0.16679710106319   -3.13921929902502    0.20001901007530
