    26
        -50.46361291  Gyration_radius:  2.49257949034 Dipole_moment: 6.637
 S          -1.76998732445003    0.95106949474467    1.22562616629778
O          -2.77299011467609    0.49226315015231    0.29417085124521
O          -0.73809682933124   -0.02837376000566    1.52231319441944
O          -1.17774986621027    2.22776197274717    0.82289050831449
O          -2.52952637668461    1.22120363872800    2.59185865244478
H          -3.36894963275709    1.53460959267147    2.27238175540710
O           0.70087126247756    0.07843998677378   -2.19339449758173
H           0.67407470508585    0.19825208407798   -3.14336193235243
O           1.92792693641238    0.03731663123977    1.56513944667472
H           0.98158906053210   -0.06036806235230    1.79630822300949
H           2.13262486847518   -0.71984414806456    0.99606902725668
O          -0.51295801054826   -2.46513745553779    0.37394652962755
H           0.42957136686667   -2.40267210099776    0.16415531832626
H          -0.69882207525542   -1.69630617515699    0.94275533708702
O           2.04378580362191   -1.71030139253515   -0.61059229999569
H           1.61369873623017   -1.10138460914690   -1.24284412854476
H           2.53047642642852   -2.35501479699815   -1.12526628173527
O          -1.53971064974084   -0.93493527048313   -1.56370069549122
H          -0.22167698501010   -0.29583150071217   -1.94353698833724
H          -1.28129235970559   -1.68215498816878   -0.97782722015443
H          -2.08866806553159   -0.36657294416854   -0.98296408173362
N           1.15556040438767    1.83752761079883   -0.17418651469989
H           1.68828525172831    2.68325352945354   -0.34185748848736
H           1.01499725969624    1.28901907743286   -1.04628025290785
H           1.62280460818348    1.20026063241597    0.54512772031584
H           0.18416158977462    2.06791979309636    0.23306966159523
