    26
        -50.46690431  Gyration_radius:  2.50949911941 Dipole_moment: 2.775
 S           0.81078732721994   -1.19645212988490    1.18398140722765
O           0.48034182890790   -2.58591266094516    0.99109606191106
O           1.24078261807864   -0.54864360030756   -0.05699928422925
O          -0.19568329381045   -0.40976327604262    1.86268164343410
O           2.09140710567697   -1.19433993241721    2.13892391914032
H           2.45611001458294   -2.05814351907578    1.97780238616857
O          -1.92458477734649    1.00746760005693    0.35498161754698
H          -1.56779128053136    0.47820649381059    1.09016393670991
O          -1.59034490792529   -2.96429417316333   -0.64767085474566
H          -1.51424128612433   -3.85856460381564   -0.98421605556631
H          -0.88255820593848   -2.86799258182176    0.02365698696292
O           1.53183949678055    1.62730422947443    2.16280350499392
H           0.84764296685722    0.93557484786346    2.18208745370865
H           2.29201980095854    1.23497816683172    2.59424747876077
O          -0.30730885224333    1.83840626544167   -2.87283127777160
H          -0.52440487618084    0.91646436909482   -2.64713139795961
H          -1.11195356920760    2.22250369925765   -3.22455322195185
O          -0.92981739006981   -0.56465405722545   -1.65245543949221
H          -1.34240844935840   -1.43801793460306   -1.51374432309635
H          -1.88378638837613    0.41341571470585   -0.41938026871096
H          -0.07470494045878   -0.63439440778160   -1.18727552939112
N           0.43620107088351    1.96967776259290   -0.27879668831190
H           0.90743899670407    1.03132152820986   -0.19580904486042
H          -0.56187033843969    1.79136614839882    0.05465230799447
H           0.92233164803534    2.61499372183203    0.34060177384372
H           0.39455569139375    2.23949232952473   -1.27681710234449
