    26
        -50.46690441  Gyration_radius:  2.50958523954 Dipole_moment: 2.777
 S          -1.18898817801770   -0.63193478368927   -1.29494013906767
O          -0.65601625986629   -1.61035023949195   -2.20903540989730
O          -0.93399807678009   -0.97899265004452    0.10468245674588
O          -0.81625190476819    0.73858568098347   -1.56986897954786
O          -2.77464467681667   -0.70340949838169   -1.47587490523777
H          -2.89171187218677   -1.58000935566671   -1.82647749854709
O           1.28629626537734    1.77035645593322   -0.23481691226796
H           0.64508122338379    1.59877419459683   -0.94719548715496
O           1.62615341989178    0.01590155893689    3.01468362212915
H           2.44526651723734    0.46497258259728    3.22901701835095
H           1.78568398037813   -0.45100951471681    2.17540400319402
O          -2.63725942472572    1.63823062237723    0.19017068694167
H          -3.45924107338177    1.23252550896991   -0.08868632967623
H          -2.00456166556833    1.43807454110675   -0.52169935446416
O           2.00158326419786   -1.81781788154035   -2.10216922209313
H           1.03581078751955   -1.71405996095589   -2.23413492922186
H           2.22288602424684   -2.68412431270442   -2.44760988732441
O           1.74236813415788   -0.85551304588549    0.39023103038283
H           1.74560546821634    0.91815872197310   -0.10520965601578
H           0.78650565326931   -1.04424902333182    0.33511786941697
H           2.10438839246289   -1.24602218309891   -0.42750708592713
N          -0.42677426082688    1.11898945753786    1.64687599531114
H           0.12343455087553    0.82627689427255    2.47244919410792
H          -1.24227120688999    1.69925795644345    1.83373551365187
H           0.23750177122307    1.59601067126331    0.96090682321160
H          -0.75684685263161    0.26137761248031    1.13195158295888
