    26
        -50.46248948  Gyration_radius:  2.48001357814 Dipole_moment: 4.741
 S          -0.74177805356369    1.20243662472476   -1.41303824982463
O          -1.12114430061708    1.55136035778900   -0.04902304509101
O           0.64687461507118    1.57435316392241   -1.67818201364347
O          -0.99982095299166   -0.17199645917173   -1.75166894645126
O          -1.63724756905940    2.10199251443824   -2.35842612430523
H          -1.43738083182237    2.98083170036831   -2.05243216447946
O           0.38443423546584   -2.07325633621340    0.67300491092235
H           0.58682987269244   -2.96497660613571    0.95776228641737
O           3.00867006276553    0.83624019044021    0.99421722714591
H           2.13735142940835    0.75906809895821    1.46486042370312
H           3.06969611919836    1.75127680424855    0.71310340411603
O          -2.75832216360245    0.09794870627938    1.49548668169367
H          -2.28329115544503    0.70618679752274    0.89539321876928
H          -2.31674361326542    0.17782092884115    2.34389838854704
O           0.52138120216626    0.48249302869551    1.79063898869267
H           0.40756575601692   -0.45937391946611    1.58963929412186
H          -0.05335273193555    0.95938995302508    1.15912090839615
O          -2.05406417138446   -1.97171186302404   -0.09703810095624
H          -1.84346584047414   -1.40582190259946   -0.86444547695579
H          -0.58799451432802   -2.08490713673247    0.38069866518722
H          -2.49297483627776   -1.36686267614072    0.53533186716844
N           1.92430214653632   -0.56186457262590   -0.96433003218344
H           1.27865921533466   -1.21827663784886   -0.46694927614925
H           2.55107687682747   -0.11202779599630   -0.23603717433429
H           2.44680612220677   -1.04174777354864   -1.68879040550349
H           1.36393311108281    0.25142484026614   -1.37279524500275
