    26
        -50.46381603  Gyration_radius:  2.50776174615 Dipole_moment: 5.912
 S          -0.81617784587219    1.73639128059722   -0.36483432165454
O          -1.03639532025263    1.04075227210824    0.89491346495570
O           0.39389328893588    2.55044264064726   -0.31676257969889
O          -0.83025742709866    0.84951923834383   -1.50886693978681
O          -2.02341062863945    2.73397673899743   -0.54816751447893
H          -1.94034403808643    3.30079662956684    0.21174538382232
O           1.17000430396789   -0.29078665459109   -2.89864407498192
H           0.36823402893457    0.22545248675018   -2.69130772273131
O          -2.26170098838478   -1.47201014257033    1.14647609769078
H          -2.05143738741897   -0.52647122137301    1.10539062052865
H          -1.77918700734283   -1.80830649281839    1.92061792297289
O           0.96527375566180   -0.67572722380346    0.97809832729055
H           0.27553505311536    0.01492843942302    1.10284587894277
H           0.53762548080173   -1.28155251926783    0.31257298482603
O          -0.34778626233620   -1.86665650101359    3.14092318854140
H           0.31396581845387   -1.57253486511666    2.49288566668487
H          -0.42177840505636   -1.16692962715961    3.79174795145360
O          -0.52975134275960   -1.76224890416111   -0.87907218678766
H          -1.25939933447389   -1.97181296327569   -0.25794865099240
H          -0.77044662761309   -0.87679484024016   -1.20889189955952
H           0.92739021375802   -1.20415817812565   -2.71143831128545
N           2.26529004340138    0.80838644362156   -0.74747803421009
H           1.61493070613011    1.64329188894333   -0.62356752776527
H           1.97026052785118    0.13686373082665    0.02135793241455
H           2.02355604177236    0.36162764656685   -1.67508937746737
H           3.24211332254965    1.07356068712700   -0.68750627871598
