    26
        -50.45901842  Gyration_radius:  2.42449803894 Dipole_moment: 3.011
 S          -0.51521098320126   -1.64137412857202    1.02111410368956
O          -1.62698103048344   -1.51451597594372    0.07775781801957
O           0.74386854153410   -1.85153191387443    0.33264514623825
O          -0.48287746057325   -0.56230281247369    1.98102399795467
O          -0.79823874975354   -2.95906512924481    1.84944622049439
H          -0.70787510101778   -3.63751066255007    1.18873942834641
O           1.48621046249771    1.79279007606353   -0.78001060333996
H           2.09693923371786    2.51917698071688   -0.90797893507562
O          -1.21085767511695   -0.39433370260271   -2.13713689539557
H          -1.28385524600181    0.63669465033367   -1.84279847373282
H          -1.45821487284359   -0.91325936070886   -1.28664034667606
O          -1.19490680011184    1.91842806691285   -1.21583319008724
H          -0.24149201938971    2.02270719507695   -1.02666857567953
H          -1.64147542972009    1.76665918630869   -0.34405174526676
O          -2.31535975766256    1.09395471513099    1.02482758710013
H          -2.97509387906033    0.45315664297670    0.74766565293600
H          -1.63562361316573    0.56441323807998    1.48954613952008
O           1.27155953175323   -0.66016956795432   -1.95177136356287
H           1.50742596245451    0.24246526929783   -1.66289065053186
H           1.21562833645696   -1.19177734117317   -1.12459139224904
H          -0.17428840069387   -0.55096763211203   -2.22791805472579
N           2.04452324569198    0.55473639062979    1.45564571613118
H           1.12887629207163    0.21334260949552    1.75293617334362
H           1.70233274113514    1.37800873758621    0.11803761062331
H           2.48617203388857    0.99194389654645    2.25520202840845
H           2.57881463759439   -0.27166941794782    1.21370260351969
