    26
        -50.46381574  Gyration_radius:  2.50805395028 Dipole_moment: 5.905
 S           0.93429136277882   -1.71439411785880    0.08679445043516
O           2.11691335072963   -1.27175283913807    0.81801457274845
O          -0.28164632536121   -1.46943798056714    0.84907651215749
O           0.88280615168501   -1.16199425090449   -1.25026141347780
O           1.06130425091296   -3.27799307968021   -0.07238504970153
H           1.11453752110142   -3.57456085831020    0.83033317106452
O           1.85684105594722    1.13040422689257   -2.26474073995886
H           1.67945986887250    0.17885951789570   -2.14064571934345
O          -2.78482486507926   -0.87312528356469   -0.27201978233553
H          -2.00387431167329   -1.29433362349297    0.11867503957351
H          -3.13883396792819   -0.29388613787595    0.42393034094925
O          -3.01692612301359    0.85575009436227    1.90869253841002
H          -2.90324973531311    0.36317605618845    2.72302426773936
H          -2.13951366242840    1.19616564905154    1.66649339867514
O          -0.42817669909240    1.16398035162958    0.89772554950346
H          -0.38568726411706    0.19305046514940    1.05254281499416
H          -0.74391857537571    1.21206962067053   -0.04617546451849
O          -1.05693302872802    0.68761956494367   -1.60058342432293
H          -0.41628855299437   -0.04704004733440   -1.62617266623062
H          -1.89774316089983    0.23856897500135   -1.36925499475724
H           1.00827950145595    1.50476521637389   -2.52545382186362
N           2.13615338063888    1.28159865415464    0.36868246936034
H           1.13855497521947    1.45784586279284    0.68971870365673
H           2.15758252822733    1.38026052730627   -0.68405247406119
H           2.81131611439148    1.88235777820524    0.82833910561185
H           2.29957621003346    0.25204565814240    0.58970262569366
