    26
        -50.46361276  Gyration_radius:  2.49267839478 Dipole_moment: 6.649
 S           1.60083858887506   -1.10221237367142    1.32765529966952
O           2.26395372438897   -1.38203478849750    0.05286387896192
O           2.06462622956675    0.12505124800656    1.92989825608554
O           0.15676518242446   -1.19219000346413    1.19204849060878
O           2.02569165605453   -2.26680712693464    2.31745033731538
H           2.85835531953542   -1.93656670923752    2.63751914347229
O           0.02970761973463    1.77780452906795   -1.46406401850910
H           0.31349943076548    2.58375189451971   -1.89690376521758
O          -2.46192569012161    0.79891129120212   -0.88159978153349
H          -3.15703903612950    1.41247947966609   -1.12187301747714
H          -1.61272683208306    1.20965126960669   -1.13816285650298
O          -1.60241035910969    0.75968978420178    1.82713888565338
H          -1.01383139562001   -0.01610398511982    1.79688092555551
H          -2.11129528846462    0.72370715895546    1.00498214445784
O          -1.48307692091250   -1.81525999087623   -0.81762943091298
H          -2.07441476715222   -1.04755475286335   -0.80781279907243
H          -1.00384447958395   -1.78427988202235    0.03550009669129
O           0.56086379462568    2.09427875472048    0.99757108435430
H          -0.27463830817291    1.81506830331268    1.43619660467659
H           1.22600447867440    1.46425752232210    1.34733489404320
H           0.28255340054779    1.89956191318764   -0.47649938728880
N           0.68821834524145   -0.82215542531288   -1.89498431393654
H          -0.22241318995555   -1.30691435757005   -1.61606964266137
H           1.02060179249279   -1.12215365424716   -2.80420569998259
H           0.52889080141461    0.20473163839800   -1.86048287952018
H           1.39704591369323   -1.07471172709674   -1.12275245886076
