    26
        -50.46627187  Gyration_radius:  2.44605076999 Dipole_moment: 6.900
 S           1.53235910603439   -0.74524586458794    1.02981734645655
O           0.22370568370273   -0.40180555507048    1.59768630341654
O           1.66567724683626   -2.13280037007550    0.69097213049262
O           1.86189468726425    0.18651317316232   -0.03906109101583
O           2.58415910498773   -0.47638842788157    2.18676653823439
H           2.88004345749497   -1.36490528067027    2.34985788795467
O          -2.14574223100944    0.68527903592885   -1.12684658329383
H          -2.70126874978609    0.91182556846913   -1.87293136294025
O          -0.25130268581629   -2.77641173568081   -1.13808824535717
H           0.51085859238593   -2.75576351716797   -0.53523839425978
H          -1.02674119270928   -2.62814373967729   -0.56465912815091
O           1.46431803768183    2.75919561440661   -0.26946852571357
H           1.79595140208454    1.83930710561096   -0.14211039560547
H           1.53337316635328    2.92752714007524   -1.21155720087264
O          -2.02917470694595   -1.61780098894431    0.59469117783079
H          -1.26348409596673   -1.29458977033301    1.09609734818043
H          -2.30772776889665   -0.88270541875849    0.03300482919664
O           0.06023801027745   -0.30550533696646   -1.98549712245647
H           0.79025884668959   -0.09561963347023   -1.37648401791091
H          -0.06857096979556   -1.28303036420747   -1.87458811062997
H          -1.29769519202363    0.28896183008865   -1.51654596375782
N          -0.78029002360601    1.86015654832162    0.82525268342699
H          -0.36143472143134    0.95804276719110    1.22420184042582
H          -1.44852781766983    1.56036899703055    0.07560308162256
H          -1.24368109305302    2.39294389208302    1.55289190100995
H           0.02280390691762    2.39059431112424    0.39623305371661
