    26
        -50.45621017  Gyration_radius:  2.57215324583 Dipole_moment: 4.222
 S           0.45974105602088   -1.80188436171919    1.43467246056834
O           0.11999137760343   -2.49769219588440    0.19559011487436
O           1.82988313555668   -1.35246347547773    1.46347244692699
O          -0.51150648118040   -0.75205595743657    1.71818394857640
O           0.31781729595451   -2.85833868936807    2.60490608367203
H           1.21132912294991   -3.18053944683108    2.65062556496532
O           1.28925111601444    1.02151703303583   -1.88874531225167
H           2.06756866188110    0.99155424851137   -2.44597264721066
O           0.05723617288123    1.85622608373079    2.05882330812329
H          -0.71582693607148    2.24573304448724    1.64564688242260
H          -0.12087803224593    0.89844895512610    2.11398154613451
O          -1.44533688670070    1.81901327517459   -2.29245305894047
H          -1.80533777869181    1.75934099653084   -1.40250143566056
H          -0.48925329138725    1.90183977556744   -2.19588881488935
O          -2.23920920926567    0.32591296076615    0.08333996534506
H          -1.61708598350941   -0.06696180087511    0.74372121272763
H          -3.11493847774539    0.03049125785369    0.33601855559706
O           2.17209449931894    1.12049633875160    0.51755675287576
H           1.54728412532468    1.59271620194208    1.09981572171133
H           2.18691805870172    0.20652277344554    0.86647832855409
H           1.63657194060187    1.10322641170169   -0.94279432046214
N          -0.57005089311715   -0.88509610729435   -1.69537774908882
H          -1.36151691099514   -0.36052587660718   -1.26758557317615
H          -0.85675677920274   -1.31602699109718   -2.56787024526615
H           0.20583664716047   -0.19049627676875   -1.86106228057518
H          -0.25382553985678   -1.61095816726485   -0.97258145555246
