    26
        -50.46975224  Gyration_radius:  2.44571023368 Dipole_moment: 3.816
 S          -1.46764506376432   -0.70975363773186    0.98386960806782
O          -1.72426793323796    0.43263198844757    0.10161757677120
O          -1.83339647549864   -1.97076817198446    0.38724973560583
O          -0.11048510570139   -0.67243480745919    1.49152016294102
O          -2.44245001574055   -0.51182629991482    2.22006994344134
H          -2.85438900412981   -1.36812384031689    2.25109826376176
O           2.24247611983054    0.89108425830986   -0.96981089812768
H           2.92456961609885    1.50283656995379   -1.24765150847679
O          -0.13065979970736   -2.41863811362452   -1.62357546688066
H           0.70482079569594   -2.45248830166339   -1.10164578775979
H          -0.83995214304948   -2.44430897085985   -0.94860517292546
O          -1.04320044377673    2.80927110336316    1.08445654681630
H          -1.38252530421556    1.97378941665104    0.70255947271807
H          -1.53974864821540    2.95340344641589    1.89150862799168
O           1.86673155323442   -1.80315278431307    0.00816739330789
H           1.23894028756524   -1.50634000401258    0.69043275574658
H           2.28043452077019   -0.99765836094084   -0.32737302249794
O           1.35278290084346    1.56821780335092    1.35744097948939
H           1.95077551120546    1.19235833836767   -0.05353887123292
H           0.62869641440681    2.21792136428658    1.27055657574072
H           0.89997550813719    0.73164674923373    1.57832767742667
N          -0.14177561634666    0.13876154983098   -1.97697431753913
H          -0.44612705083393    0.52634544348665   -2.86303550403139
H           0.80535305638531    0.49156027801356   -1.71021458724666
H          -0.81849328894552    0.37622714267742   -1.20608346982624
H          -0.12044039101043   -0.95056218956823   -1.99036672328135
