    26
        -50.46158869  Gyration_radius:  2.58929346229 Dipole_moment: 2.466
 S           0.90543276330288   -0.11774162061347   -2.04274754769413
O           1.20565573728230    0.74206868472829   -0.90731007632312
O           1.87171556711646   -1.15788043522974   -2.27870797287585
O          -0.47106390630813   -0.58727324192026   -2.00789858077838
O           0.99238004068247    0.86781641681076   -3.30264891644983
H           1.14137545049504    0.27325632371600   -4.03120577982904
O           0.00948830876640   -0.82275675386254    1.97575225365531
H           0.66731533139580   -0.10910365791810    2.11760945468011
O          -2.82671405406578   -1.27739588524541    2.12613015773419
H          -1.88810773062621   -1.26593083364385    2.36044312128032
H          -3.17868734417158   -2.10518093463636    2.45476731548856
O           1.73053541394359    1.20582768825384    1.69183254023829
H           1.72854679235608    1.00106091500760    0.73891029967157
H           1.38914662943323    2.09971694558665    1.76128062722291
O          -0.54602959700410    2.66220586210040   -0.53402717425029
H           0.18856691713098    2.02905478702794   -0.70959792843106
H          -0.70087669024325    3.11570679245185   -1.36350419690891
O           1.40384423963508   -2.18911300553238    0.12176065024283
H           0.45893951411297   -1.44170385499678    1.36237589411105
H           1.50155844507660   -1.86053405709819   -0.79343061261338
H           2.29806216348871   -2.35177392250479    0.43124013655238
N          -1.60647856148013    0.27046589299986    0.16554124334633
H          -1.26528143981127   -0.15382748977073   -0.74493711557243
H          -2.54883984602854   -0.02809463378302    0.41381416213889
H          -0.95632348631837   -0.09460972684938    0.92097925181446
H          -1.50416065818411    1.29573975490582    0.07357880355797
