    26
        -50.46229166  Gyration_radius:  2.41098579274 Dipole_moment: 5.655
 S          -1.37142496712709    1.18388159916322    0.89443418307002
O          -2.49064156365074    1.38501491418831    0.01628376121575
O          -0.86318525622007   -0.18146088835106    0.94031709576060
O          -0.28480152002664    2.13445525508784    0.67746477798640
O          -1.90817079588495    1.45650524493343    2.36816530446181
H          -2.58874212353814    2.10451717440586    2.21858839193508
O           1.47370725433705    0.03946422541701   -2.02956832457192
H           1.77879882162613    0.37265504468418   -2.87424957476706
O          -2.07930172090455   -1.93305245373398   -0.86585163378350
H          -1.36427352172130   -2.57467369854017   -0.79312540506496
H          -1.98889491162523   -1.34918587941412   -0.09804699930507
O           1.44836477244756   -0.93202449247264    2.17547043522255
H           1.50866456484526   -1.72846583000422    1.62571232755687
H           0.51264561263662   -0.66988157023011    2.10865214055934
O           0.80137024210180   -2.06803645754780   -0.25703104046278
H           0.15842791367834   -1.42145739022969    0.07693685836004
H           1.18243408526202   -1.66184417273823   -1.04333611838952
O          -1.11135600975809    0.34153945106877   -2.02063611117006
H          -1.51834781280553   -0.53941464771015   -1.90224669067549
H          -1.60089055318951    0.90199926599048   -1.39398654952798
H           0.48393525675855    0.18740745000068   -2.02491961791196
N           2.00153383028185    0.99408620721531    0.43846992630822
H           1.96259300408596    0.21481618383758    1.15621683958233
H           1.96892162429824    0.60516231659110   -0.53020783583225
H           1.08249958516894    1.54271252604068    0.56110026366300
H           2.80613418893064    1.59528064233724    0.57539360577204
