    26
        -50.46627185  Gyration_radius:  2.44612905406 Dipole_moment: 6.897
 S          -1.08082152231066    1.30301822744550    1.04656659677807
O          -0.68508437356414   -0.03034151503626    1.51410562035856
O          -0.20868124308541    2.35111284283567    1.49231658760208
O          -1.32054674038736    1.26722350442970   -0.38890141044017
O          -2.48806082646562    1.59154284861557    1.72006390416909
H          -2.25319737218078    2.31678061113108    2.28798269738275
O           1.56795752012053   -1.69232258554253   -1.00995841882937
H           2.16646279752091   -2.03425147909121   -1.67438721320454
O           1.98758147348921   -0.66249742618687    1.64385130551140
H           2.01894097370198   -1.16577846143078    0.81968999140582
H           1.05379543362227   -0.43643339338196    1.78210934480431
O           2.31110154845714    1.84216917917636    0.58167300929797
H           1.50479976236995    2.22424045002298    0.96710818063443
H           2.46297472956434    1.02040284912732    1.08536740654128
O          -2.42665076567139   -0.54740304704420   -1.90976108841838
H          -2.11554557340615   -0.33969844949619   -2.79334969132399
H          -2.17815887143588    0.22895379569076   -1.35478444905016
O           1.09175123689087    0.78247128776448   -1.49483898174472
H           1.42234113138824   -0.71511992406979   -1.23766950466634
H           0.19488228703668    1.02226959129795   -1.20170353206255
H           1.68565220135519    1.25970397044898   -0.85929335545539
N          -0.95128001147391   -1.95051929999566   -0.20705955770832
H           0.02380183142859   -2.05124765806759   -0.57725519917976
H          -0.90118178545404   -1.19606699901201    0.55248416581600
H          -1.58107514045598   -1.56648164942232   -0.95967430958609
H          -1.30175869058036   -2.82172727025932    0.17531790123358
