    26
        -50.46753369  Gyration_radius:  2.51775280863 Dipole_moment: 2.694
 S          -0.31989755285352   -1.33177226601679    1.24873782399179
O           0.38236506092118   -1.26943977521329   -0.03453659433210
O           0.60115860602848   -1.32520204717272    2.36035575330279
O          -1.36957618700162   -0.34026226813639    1.33359082495170
O          -1.04378431054452   -2.75034912002308    1.28098565024356
H          -0.36785795923133   -3.30946113561903    1.64952629803106
O          -1.05680288233115    1.92289254881084   -0.09477066225809
H          -1.35312243103334    1.26758455501094    0.56289577173425
O           1.47595746503699    1.36947375652666   -2.72756930841099
H           1.66924069703153    1.40864165829695   -3.66438032956540
H           0.61810493937265    0.92383618738744   -2.64306179902799
O          -2.78893441763348   -1.41738061037290   -0.67710018716139
H          -2.40337771768259   -0.99075527867728    0.10831051601780
H          -2.78918858920887   -2.35527337154934   -0.48022873305584
O           2.21726055618540    0.78391466527012    2.51142899502738
H           1.69232443285087   -0.04723666219383    2.50846659422690
H           1.96318073960614    1.24813239407748    3.31052212653684
O          -0.88208569391947   -0.00595218846941   -2.04996075923170
H          -0.38029214326934   -0.55544891908292   -1.41537303792288
H          -1.77124278184212   -0.38787113752909   -2.00448424919358
H          -1.20025628485786    1.48057453510201   -0.95256356782674
N           1.45550813128180    1.15800678099186   -0.02528192226234
H           1.19879974689699    0.14403274919853   -0.08715950975254
H           0.52092875528040    1.67006425098440   -0.00405426331362
H           1.97504866090398    1.28252058287121    0.86275197575645
H           1.95654114999949    1.42673009559868   -0.87704738653159
