    26
        -50.46245828  Gyration_radius:  2.5305025915 Dipole_moment: 4.469
 S           1.39208507642693   -1.76015874227224    0.11760844264228
O           2.83204564104856   -1.64777114843980    0.18793912114835
O           0.74042383428942   -1.08371688190565    1.24895714870730
O           0.82883794127868   -1.32298297155974   -1.13871216417730
O           1.03671885105372   -3.29711531830165    0.26910343543106
H           1.58918137732703   -3.59665722634294    0.98542166413994
O          -1.41399488469694    1.62139544162160   -1.26716821360528
H          -1.37494327721624    1.89982075831685   -2.18237266311662
O          -1.97660772261431    1.99620507911393    1.41734655874756
H          -1.97039079418859    1.99823380426762    0.44729528767685
H          -2.85214050217904    2.27716926475495    1.68695004199995
O          -1.93735830477617   -0.82924579835651    1.49176570881461
H          -0.99692408168623   -1.06727858853954    1.56151560287051
H          -1.96968842517656    0.12691438320131    1.65593801762704
O           2.88818957960946    0.58818308591003   -1.17860115684123
H           2.48076702488342    0.23782268257456   -1.97668164845977
H           3.07644401468820   -0.21720727724156   -0.64254410136542
O          -1.80745132261997   -0.89295346405568   -1.18375851974974
H          -2.03406941391116   -1.01949088184345   -0.23459181981984
H          -1.64346391588414    0.62507848047795   -1.28787967280589
H          -0.87951060019956   -1.19236150482004   -1.26652914194381
N           0.79718921318865    1.33833614195267    0.26414411568472
H          -0.03098113599496    1.49130318415209   -0.36257552945480
H           1.67597923917848    1.22495816039194   -0.31723371305184
H           0.86444796010608    2.09245554439702    0.94098811936064
H           0.68521462806516    0.40906379254994    0.76367507954472
