    26
        -50.46371174  Gyration_radius:  2.50863095566 Dipole_moment: 6.020
 S          -1.52786326302312    0.63719382411744    1.03386354433028
O          -0.45441529251275    0.13378298570661    1.88287590984198
O          -1.04048943618972    1.32569079167558   -0.14005189975060
O          -2.47075287304557   -0.43158531664896    0.72013654813570
O          -2.31932922265529    1.70442993070032    1.88151515081514
H          -2.63294214054393    1.19192426538694    2.61915061905480
O           0.65224426294548   -2.30941668341713    1.90574582360651
H           0.21847249598596   -1.47022200991019    2.15893087651318
O           1.24437542768526    1.72270421130975   -3.05602727297567
H           0.43237602486171    2.10106661075336   -3.39746964512443
H           1.02147053574177    0.83355668194967   -2.73511739421137
O           1.48923156437298    2.52731207741011   -0.39763359003569
H           1.60391642900302    2.43856035321507   -1.35930748134361
H           0.54844200410347    2.36057480496380   -0.23621393008804
O           0.36472009526232   -0.44131659335594   -1.50531645619394
H          -0.25160585654594    0.24687267937168   -1.16935790354713
H           1.12234180179358   -0.36829479089113   -0.86242700092043
O           1.90386328312331    0.05947666913502    0.55355405303494
H           1.13375219154817    0.15661800475712    1.14406536542983
H           1.54575421944200   -2.05294063157675    1.65333795991074
H           2.08545341688275    0.98303055013798    0.27598199203583
N          -0.94198778916148   -2.30827458333145   -0.20902753958590
H          -1.34399907806230   -3.14252789767876   -0.62185760000548
H          -0.39408802655707   -1.72433786694556   -0.90824350035601
H          -1.68972503122374   -1.64743180092882    0.16694232459246
H          -0.29921574325911   -2.52644626593091    0.60195107683703
