    26
        -50.46794304  Gyration_radius:  2.46403666147 Dipole_moment: 2.603
 S          -1.15757669350650   -0.67059767082638    1.26895537402177
O          -0.34755112950287   -1.81589299940301    1.61445579167933
O          -0.59492270278502    0.57585823007360    1.77178384786114
O          -1.46715561677653   -0.57473288794859   -0.14941145690718
O          -2.55378907991288   -0.86965309223957    1.98849691148314
H          -2.30255155094074   -1.19349829331232    2.84739055786625
O           0.56316262090718    2.80160235909911    0.80941450946129
H           0.01418691087525    2.15178330867598    1.28819000178874
O           0.59432601015066   -2.42073384407257   -0.81531136309559
H           0.31060533549096   -2.32979628387860    0.11470641758481
H          -0.19477557877416   -2.23714964238317   -1.33040048589650
O           2.35221534258455   -0.40003022134963   -1.05423366458859
H           1.88320388298748   -1.25990699713797   -1.10996022227376
H           2.46217841267421   -0.25291066067234   -0.09289373357382
O          -2.14236183043569    0.58049977527146   -2.61009856942530
H          -3.03991779907050    0.54147854867365   -2.94197878290726
H          -2.13596883912656    0.08710864299501   -1.77731986345323
O           1.97054176329333   -0.14807416232212    1.61720171510666
H           1.04986184172188    0.15200686578468    1.74094954921595
H           1.96193921204021   -1.06350809996783    1.90842350759256
H           1.44104499726324    2.72366121640702    1.19140948981871
N           0.27182926466585    1.14596037564871   -1.27963291484602
H          -0.41777278059409    0.51369975991842   -0.81422147648932
H           0.40990225372493    1.96967988729307   -0.65035715144915
H           1.18871722913966    0.59034473015820   -1.35160684751129
H          -0.11937145608823    1.40280117550809   -2.18395114106864
