    26
        -50.46794298  Gyration_radius:  2.46399510704 Dipole_moment: 2.606
 S          -0.34137796324197   -1.65341319347068    0.74147684274905
O          -0.31427720089958   -2.38094692485410   -0.50634468788376
O           0.98715120489905   -1.22642449717982    1.16085621155668
O          -1.28078873335529   -0.54255039266077    0.75507303366837
O          -0.87031628030526   -2.66108663922592    1.84220747099214
H          -0.41177871213088   -3.46665232137084    1.62657270828040
O           2.38766974309383    1.05251793843678    1.41838248427531
H           1.96691909163626    0.18086129793148    1.54533213220454
O          -1.48878691144724   -0.56726190274226   -2.08358260731148
H          -1.07361401283058   -1.32223132183424   -1.62388034547366
H          -2.14658261723530   -0.23742718371832   -1.46697829083222
O           0.56329526840944    1.16061465450412   -2.26653899536093
H          -0.23462313760047    0.61526147641886   -2.43516792524767
H           1.26134745992178    0.50313640659534   -2.07048707965293
O          -2.43198543177392    1.90564029912480    1.48103945560000
H          -2.23253453593928    0.96835012093025    1.34442067918549
H          -3.17483482357037    1.93999693718024    2.08460047100905
O           2.00742164144808   -0.91284764398149   -1.28658474320464
H           1.64954922723474   -1.65859205072947   -1.77508967771984
H           3.08103068305943    0.90814092837516    0.76947263718541
H           1.70288126689845   -1.05731878598056   -0.37038711082488
N           0.08057157186524    1.72250129514229    0.22741762366144
H          -0.52209025239859    2.49523994398567    0.50395168835762
H          -0.42092796376485    0.83860853311234    0.47058940559568
H           0.26676678245218    1.68159506803669   -0.83005433129399
H           0.98991462554572    1.71428796792798    0.74370294052423
