    26
        -50.46794291  Gyration_radius:  2.46398211571 Dipole_moment: 2.608
 S           0.11719957298476   -1.71606666938569    0.66494481106642
O           1.46155831333958   -1.25447198110371    0.34439748637717
O          -0.27161878923570   -1.37520805718499    2.01391068460856
O          -0.84000025446906   -1.29648281199365   -0.34720288775001
O           0.14209589339596   -3.29702028727577    0.58583979268654
H           0.55792165239370   -3.54128965997794    1.40622684089914
O           2.64543165218354    0.58417920644627   -1.21724358152609
H           2.38447904517781   -0.22834800697493   -0.74334415879875
O          -1.84097914482224   -0.51303811215702   -2.84384379490117
H          -2.29961670921632   -1.13647273986536   -3.40795271168654
H          -1.62593796273848   -0.98773672602060   -2.02817336326544
O          -0.45240654455706    2.46148318010279    0.73068184523450
H           0.32296095222291    2.12716811480452    1.22554931874969
H          -1.20237663559106    1.93505272634459    1.08137240726159
O          -2.11654515793759    0.48387763212162    1.47092709307501
H          -2.51470889214961    0.07787112783530    0.69742943831799
H          -1.49177828497959   -0.18605572830076    1.80962469910007
O           1.43490831831623    0.91141520777721    1.90587241962283
H           3.04696386821502    1.14881448664806   -0.55197394160983
H           0.98355643945189    0.60922536055558    2.69829135728314
H           1.51894945050697    0.10881848141497    1.35654407442146
N           0.00839306961962    1.03619122563330   -1.39638057112214
H           1.04287296922862    0.99947458749005   -1.54452948236585
H          -0.50906895761035    1.17036245360621   -2.26301092733784
H          -0.28078425332787    0.11135782233552   -1.00523822458454
H          -0.22146960045255    1.76689920717658   -0.64271861377308
