    26
        -50.46103478  Gyration_radius:  2.72972877349 Dipole_moment: 2.734
 S           1.84538545578723   -1.61726918133853    0.51277877951488
O           1.28547666013493   -0.82840217616001    1.60093353228381
O           1.01232573014505   -2.77584076498811    0.22137582431173
O           2.13406916813353   -0.80901452814323   -0.65637786192530
O           3.23244109513488   -2.19580620432815    1.01599869583882
H           2.95938145269854   -2.89890711901546    1.59689074699582
O          -0.45121235319060    1.20681691886198    1.46977034935445
H           0.38890239311668    0.75538462663681    1.67791594034958
O          -0.72263183586048    3.57506872230787    0.06596763415796
H          -0.55727302447128    2.82994944922428    0.66893101900774
H          -1.49584978123813    4.02945463919643    0.40372740425826
O          -1.25492903547028   -2.20584391594478   -0.88887514479496
H          -1.52736041557063   -2.92980158242178   -1.45401273179431
H          -0.38783489072468   -2.48443485486328   -0.48692277679456
O          -0.49980187951627    2.59970696619688   -2.45006616372752
H           0.26448175484271    3.00044030280644   -2.86701068084289
H          -0.62491903380003    3.06915887730746   -1.59851851276683
O          -1.42848565683096   -1.25473122663618    1.80826969608170
H          -1.11551173639963    0.55269986582264    1.76843240319579
H          -1.67580344165690   -1.69388190959514    0.98557275049524
H          -0.46360621162262   -1.35904176926151    1.87437398099940
N          -0.19543981160499    0.29181532550509   -1.07654820815007
H          -0.80393956686720   -0.52943716455953   -1.22852964558708
H          -0.32173295577802    1.03804438251239   -1.79217839608412
H          -0.39494222829706    0.70016996414361   -0.13292765964176
H           0.79881014890321   -0.06629765323969   -1.03897099474627
