    26
        -50.46336439  Gyration_radius:  2.4236462042 Dipole_moment: 4.902
 S           1.06603422257381   -0.61881805381977   -1.32521450336007
O           0.38388096603227    0.63558662300490   -1.12706523733710
O           2.42376180784392   -0.48224763614370   -1.79174557923664
O           0.97416500874366   -1.47565951074521   -0.13447956278711
O           0.24963086822042   -1.39065728798667   -2.45775135882193
H           0.85107842936286   -2.06158135448311   -2.76789001218070
O          -1.25961386478053    0.89631552918746    2.02006087913850
H          -1.70111315590705    1.49049275144148    2.62771301588093
O          -1.46932361473170   -1.81380334935145    1.01032599397993
H          -1.51358382512267   -0.99850993300292    1.52620685333931
H          -0.58059122766118   -1.83705759098586    0.61595461207111
O          -2.51849660260230   -0.99762170464056   -1.35394150965574
H          -2.31896365160068   -1.45157871249492   -0.50976698961501
H          -1.72689940325212   -1.08993707778490   -1.89318384267974
O           2.76657178894816    1.63321828779295   -0.21731105548944
H           2.20340662402934    2.25661750828708   -0.68489750471118
H           2.83192550761168    0.86394981297488   -0.82484016563734
O          -2.03547701374623    1.44969444160085   -0.36268343098010
H          -1.14993247089400    1.37929247723766   -0.76076470547092
H          -2.49306549120580    0.65904771837879   -0.72386448457749
H          -1.61107175912261    1.13379536218443    1.09654137824514
N           1.33294661824557    0.37827890601482    1.64062108969777
H           1.88676814054690    1.03643338493325    1.02525270113147
H           1.83106735164421    0.16360673073466    2.49865921876081
H           0.36035697802686    0.72885457974855    1.84067878670544
H           1.21653777647277   -0.48771192126241    1.03338543517331
