    26
        -50.46132359  Gyration_radius:  2.48130481071 Dipole_moment: 7.441
 S           0.19018644446381   -2.20823758279386    0.33039370764337
O           0.08047692326715   -2.61231695135799   -1.04640439148966
O           1.54786686831208   -1.80306101260956    0.70135205563223
O          -0.77223102297975   -1.19598292429162    0.74228365074776
O          -0.13751433071459   -3.49844872777633    1.19325836169137
H           0.04960452757935   -4.18274272244362    0.55991288991129
O           0.99468191228316    1.61955531181556   -1.47100659809212
H           1.46106498449988    2.00116385656755   -2.21532483142085
O          -2.50592093560810    0.13165183421389   -0.95617762600844
H          -2.31328327199241    1.04127216797056   -0.66131447463034
H          -2.09615066603183   -0.44560573784723   -0.29376254235316
O          -1.30134510027418    2.42027420743079    0.00854711280985
H          -0.53135633041189    2.32036416157718   -0.56818746450098
H          -1.05301303170022    2.03529046382129    0.86049341466805
O          -0.39476150839556    0.89837042065308    2.22137002808318
H          -0.83927092293676    0.79539567077924    3.06356667833262
H          -0.59471717770535    0.07709017527335    1.69887668943710
O          -0.32754750734808   -0.34314062877936   -2.40611684859622
H          -0.11242406827428   -1.21728294966561   -2.02835460170436
H          -1.24210534169012   -0.15947996240660   -2.08220023303964
H           0.47928391502153    0.82293331560517   -1.85277347123490
N           1.90949498454739    0.72355629235907    0.84766473033706
H           1.82304304750219   -0.35578479498723    0.77506223709867
H           1.65253834811739    1.12518758201739   -0.09351025601154
H           1.19173919893858    1.01046344179676    1.53721208677141
H           2.84166008153058    0.99951507307814    1.13513968591817
