    26
        -50.46254229  Gyration_radius:  2.49153894176 Dipole_moment: 7.183
 S           2.20693123896903    0.07590995551300   -0.87509209449510
O           1.72513759091644   -0.22905549776467    0.47315237394156
O           1.85924890172040   -1.01827037026269   -1.78610818815233
O           1.79872019879871    1.36658754835622   -1.35009977452793
O           3.78703990949537    0.07709185180559   -0.78825371263063
H           3.96798348515580   -0.81755088742858   -0.51950227405320
O          -2.07449243817859    0.61319368063902   -0.83583788793904
H          -2.76176047601090    0.99098448323864   -1.38559671263857
O          -2.00552903820418   -0.13035414685537    1.79743872911534
H          -2.12424615055507    0.14238767406057    0.86607222698271
H          -2.77199049514918    0.17861665153032    2.28166150458024
O           0.30945412109990    1.50636251120286    1.98232082126508
H          -0.44566803366924    0.92728916766129    2.15822635826186
H           0.96373744289456    0.94608520843798    1.52453958824451
O          -0.05593595065418   -2.04487953928759    1.25427913569956
H          -0.72093936706236   -1.50837557252148    1.71072696484298
H           0.71558791594826   -1.45224515320533    1.12496899948983
O          -0.40859139716214    2.46707965573219   -0.39740626566236
H          -0.18119558617729    2.34938448730317    0.55398544670668
H           0.41468646377522    2.20588952936887   -0.86035364097668
H          -1.39704564922981    1.37699610679818   -0.68646529196825
N          -0.58496928813849   -1.61578945881323   -1.27109581298155
H          -1.17624291871307   -0.75852791170655   -1.25402541939746
H          -0.47311766881684   -1.95482420930937   -0.26292162765629
H          -0.98180493925963   -2.32947670344736   -1.87195044059932
H           0.41500212820439   -1.36450903104612   -1.58266300545324
