    26
        -50.46254346  Gyration_radius:  2.49164403843 Dipole_moment: 7.199
 S           1.31547641563492   -1.89645990608730   -0.56134516615211
O           1.88771289689794   -1.86778546199890    0.78774630348631
O          -0.13688060060496   -1.73033701975496   -0.48779926956924
O           1.94970482395565   -0.98634506630755   -1.47101293970938
O           1.56538346037364   -3.36303457557711   -1.10092138088159
H           1.17970080444844   -3.89226597345668   -0.41072342624813
O           0.48853310045432    2.24074979481086    0.34971279633355
H           0.94722634153741    3.08099946049830    0.37965985693143
O          -1.52099365667650    0.03048904382489   -1.99714225053848
H          -1.06142753851899   -0.72381996807433   -1.58325237203005
H          -1.96623837475141    0.48927664854667   -1.27065825523149
O          -1.63163003164919   -0.86139861395553    1.53372198751337
H          -2.09793987169739   -0.10671743239234    1.14462640141346
H          -1.22334745342273   -1.33565844317093    0.77755649765905
O          -2.16647570297440    1.57745741892042    0.29689617788123
H          -2.72691314459136    2.33789947940241    0.13863060781330
H          -1.24525699933343    1.90252302557475    0.33742620002041
O           0.80147275284956    1.33755308534825   -1.99358995763717
H          -0.08444728946393    0.96862394718468   -2.21655554787418
H           0.64546066179144    1.88062265587300   -0.60423184151277
H           1.36288753210421    0.53931339412929   -1.90450300678814
N           0.75762910238208    0.09711332497552    1.99549365049704
H           1.31804692207812   -0.69162634749176    1.52218432750777
H          -0.25195568284251   -0.25606323110192    1.99535594179141
H           1.10077058136355    0.27159330387004    2.93338403863074
H           0.79350093065488    0.95729746641300    1.40934062669200
