    26
        -50.46254362  Gyration_radius:  2.49169981542 Dipole_moment: 7.209
 S           0.60339082038154   -2.27177697930902   -0.33987478875704
O           1.77015868869779   -2.06576999605157    0.52302238868118
O          -0.58377475121300   -1.68373863194831    0.28207778685464
O           0.81055033502694   -1.84430108144192   -1.69355428022844
O           0.36147025222350   -3.83555576848243   -0.36446830087223
H           0.31938373753042   -4.04006983061415    0.56376493955470
O           0.87988322892930    2.01863198322071   -0.72996699180992
H           1.39363412404928    2.67260632924776   -1.20503811349759
O          -2.29540590559500   -0.04673500302723   -1.01651088013937
H          -2.25743878289473    0.69010559986018   -0.39037392664042
H          -1.79205638202334   -0.76904085866777   -0.59651004407415
O          -1.50787941681454    2.15303892600043    0.60077812772019
H          -1.96773481365123    2.97717078514527    0.43722026014361
H          -0.65604995855746    2.19927120821377    0.12297569318555
O          -0.74508430842044    0.06549185499620    2.27965378562212
H          -1.24157009939811    0.79654307942251    1.88268667054484
H          -0.83343558465745   -0.68328504465685    1.65124259374451
O          -0.13491943698035    0.49687151366563   -2.47905175310434
H           0.49330268928312    1.39760443117271   -1.45745695680073
H           0.28839547099974   -0.37832520583253   -2.35595502902726
H          -1.05296096231796    0.35295560628745   -2.15172607665978
N           1.65655044435668    0.38162609977172    1.29372949379091
H           0.74547056382577    0.34564302541523    1.85296931371446
H           1.50593145939006    1.01573373807551    0.48146973694409
H           2.44076356045641    0.68374072097913    1.86082829449003
H           1.79942504737636   -0.62843650144449    0.94806804661444
