    26
        -50.46422655  Gyration_radius:  2.57426669069 Dipole_moment: 3.097
 S          -1.19791587910236   -1.64840311649928    1.09564707226461
O          -2.49240080614683   -1.00573039707735    1.10848786047840
O          -0.45361373242008   -1.38967160423154   -0.14119725446053
O          -0.36982661533414   -1.35901789284280    2.24876991893232
O          -1.50484725641903   -3.20551559227908    1.10816447666797
H          -2.45149607515940   -3.19589790602964    1.01207405178588
O          -0.53712753320805    2.07086748865958   -1.30841556656191
H          -0.73465171842261    2.98332288049502   -1.52142422778018
O           2.57360958361541   -0.44190960641606   -2.30960872978952
H           2.89237470598588   -1.33397790934626   -2.45090250834956
H           1.63693439565520   -0.43526574460165   -2.62479757533203
O          -0.08112406075670   -0.40743807470580   -2.67439642992155
H          -0.35000838678677   -0.93564191616509   -1.90525985445260
H          -0.38041848371413    0.48979190249238   -2.47421764149942
O           0.84181521879540    0.90809702616762    2.49203738136104
H           1.00763104067413    1.08435892454165    3.41904610857928
H           0.41973613922510    0.00943845107681    2.45951264077972
O          -1.54841152555000    1.46817623158469    1.02412538393733
H          -2.00386927400212    0.60227191968160    1.06543738209878
H          -0.80920023495288    1.41979785209759    1.64726721651034
H          -1.05715781227411    1.85551505523287   -0.48768709802218
N           1.35439603001388    0.50800278976049   -0.14225470571370
H           0.66478803143719   -0.29849662029305   -0.07176759271878
H           2.12142656233537    0.20283995781825   -0.77528955339827
H           0.83298823078407    1.27869237356505   -0.60263724396124
H           1.62636947572064    0.77579352726472    0.80928649852927
