    26
        -50.45487889  Gyration_radius:  2.5619327604 Dipole_moment: 7.146
 S           0.30815691604203   -0.31194666616999    2.00410433240789
O          -0.86117822153214   -1.20048272891534    1.92919940879252
O           1.09768621557967   -0.48302576272018    0.76875068938687
O          -0.03963103322722    1.05639912686954    2.25249005392637
O           1.19596986171271   -0.80919053025809    3.18922371220261
H           1.56094739431706   -1.66094630865765    2.88196042748918
O          -2.24546722538399    1.17147408320334   -1.18792543747407
H          -3.12126567046017    1.44338347707588   -0.91167040434616
O           1.55915898330771    1.43461293426936   -1.07905305393179
H           1.56387635816886    0.78506295500144   -0.35350625840720
H           1.11059221849642    0.99469009724419   -1.81696028996977
O          -0.25099817286753    0.31626204989406   -2.93927778346389
H          -0.09705447696290    0.73542414585202   -3.78722037626331
H          -1.01452147981300    0.76332011251772   -2.54271306345932
O           2.25352341241473   -2.67465885970846    1.59630217616649
H           3.20974358483532   -2.60465606277816    1.55559201779345
H           1.89684170400569   -1.92358770587521    1.07644214711917
O          -0.56125918597488    2.56238332697994    0.11525791523339
H           0.28792861990581    2.39636791170710   -0.35066672554855
H          -1.59729554446599    1.76902049784274   -0.66396491789882
H          -0.43550604399108    2.14122092133950    0.99027773037592
N          -1.18145021691817   -1.20146583405275   -0.57125611776010
H          -1.57634061273759   -2.02182708681127   -1.01897139324222
H          -1.14424507628021   -1.28603390828799    0.53087726695190
H          -0.20557267916281   -1.06605436419905   -0.84676885074605
H          -1.71263964899336   -0.32574581139537   -0.82052319531689
