    26
        -50.46132329  Gyration_radius:  2.48126722181 Dipole_moment: 7.455
 S           0.21975460859286   -2.20815801734532    0.31076191129194
O           0.05872419158471   -2.60782304102624   -1.06222146288166
O           1.58802886665266   -1.79375327831977    0.62910535409326
O          -0.73340010588649   -1.20540097221186    0.76498585366973
O          -0.06309710667770   -3.50406985310212    1.18097213352653
H           0.11198609396983   -4.18491241808903    0.54051260847797
O           0.92336939828810    1.63464827075583   -1.50052515657384
H           1.35733420202064    2.02323848509983   -2.26065465550170
O          -2.54292335876179    0.11680274355000   -0.85741911554545
H          -2.34574403802049    1.02641375456898   -0.56556645531448
H          -2.10341049083992   -0.46050598939558   -0.21443303519252
O          -1.31896153157892    2.40992264626504    0.07182655480877
H          -0.57144541196102    2.31888370097053   -0.53514483396785
H          -1.03453940347739    2.02262735943382    0.91135220199805
O          -0.31511679489430    0.88431861720622    2.23955202140046
H          -0.52847718811228    0.06390734622604    1.72102604270964
H          -0.72574138323677    0.77359036746217    3.09779343042395
O          -0.41863125762635   -0.33471615006580   -2.39269100273727
H          -1.32135259020193   -0.15965764837030   -2.03281761695961
H           0.39989475523261    0.83553277083003   -1.86560820013485
H          -0.18258369929298   -1.20910639685363   -2.02827332508643
N           1.93513760812888    0.73478122580430    0.77600778136404
H           1.24267706909423    1.01244573791648    1.49456375326623
H           1.63844377562289    1.13915795109284   -0.15220346080574
H           2.87566344951183    1.01667819881506    1.02834982774546
H           1.85441034186916   -0.34484542121764    0.70074885592521
