    26
        -50.46863003  Gyration_radius:  2.50081532177 Dipole_moment: 2.832
 S           0.46663060315841   -2.11444510845661   -0.21757810854553
O          -0.72735401813358   -1.94610944129879   -1.02919832113347
O           1.41159195470802   -1.01075135960151   -0.36561717856686
O           0.17737125287327   -2.41497832857920    1.16533266628190
O           1.23248286459098   -3.37407499288618   -0.81006120477397
H           0.65661517721220   -4.10056245851852   -0.59346350128634
O          -0.79166610098888   -0.45149301234343    2.66143053978647
H          -0.50724069736834   -1.32443104423464    2.31810299800278
O           0.38175427529528   -0.20405196015800   -2.68365314346684
H          -0.23353861532150   -0.89368635635173   -2.37201751599120
H           1.12613507463627   -0.31828473391626   -2.07266961195920
O          -0.82582289746899    1.94029761486138   -1.79398634685359
H          -1.15822578365326    2.43691487156016   -2.54250151582666
H          -0.33317950146167    1.16010816214331   -2.17640142992839
O           0.13363431736096    2.94236552000505    0.50689297962238
H          -0.69103587815395    3.07746349792567    0.97927060153622
H          -0.12444904359261    2.64550855619178   -0.39145674528996
O          -1.75979619629195    0.19880424580294    0.23104612057509
H          -1.52796207439942   -0.64359412066491   -0.19775891088447
H          -1.42101215373379   -0.14128514110536    1.98501829053636
H          -1.61580929330378    0.87282753801143   -0.44757407696997
N           1.25105113848452    0.74859550762912    1.58163353478906
H           0.45784823283527    0.32158362818103    2.17337312791819
H           0.91178857485260    1.65453943989811    1.17086188842449
H           2.09869893538647    0.88108576655290    2.12135945662771
H           1.41148986257041    0.05765371938226    0.79961538731819
