    26
        -50.46942136  Gyration_radius:  2.4580690179 Dipole_moment: 4.099
 S           0.35057252066884   -1.39569805952843    1.01622718080418
O           0.31146913915105   -1.28788777311897   -0.42885072033280
O           1.69664074488379   -1.28665857746116    1.55428534329875
O          -0.57134391397397   -0.47964276839694    1.66803689996707
O          -0.14340739063290   -2.86554392494996    1.34388475713773
H           0.08402963996775   -3.00087625399727    2.25890701198118
O           2.06796563677175    0.17718822949877   -1.94546422893546
H           1.59672262813034   -0.59708925396054   -1.59167059784783
O          -3.22898178638033    0.76422018333513   -1.33853791366722
H          -3.76365008946515    1.30568054399218   -0.75623917841094
H          -3.09564801153652   -0.08869074188414   -0.87142805274853
O           0.15235405812841    2.01070880908889    0.95051454025574
H          -0.18528428580148    1.91198595079066    0.02802179689259
H          -0.21149900192270    1.23273122744292    1.41442938919447
O          -2.49415338180809   -1.41973592817412    0.07520584755292
H          -1.93200977525103   -1.02864303353605    0.76769455631153
H          -1.89892628056816   -1.97004380576256   -0.44055643815578
O          -0.55707931342507    1.09992423063881   -1.43483106423302
H          -0.37291933683275    0.19606010608113   -1.12151460834348
H          -1.52720353645040    1.12325902193350   -1.56277168481588
H           1.36411373744025    0.75476263299716   -2.27031636598542
N           2.50755342966189    0.98871722572173    0.54238865219308
H           2.51376830272479    0.77813817091581   -0.49376634938901
H           1.62617566298830    1.57170470353472    0.75559889729407
H           2.34908980450902    0.06596524148337    1.02972721382080
H           3.36165079902330    1.43946387329018    0.85102509614657
