    26
        -50.46942146  Gyration_radius:  2.45832780238 Dipole_moment: 4.083
 S           1.07335727817267   -1.15924471200213    0.78040550292453
O           0.80698797615315   -0.94434242851048   -0.62827994648819
O           2.27805150346819   -0.48537155638047    1.23624201927343
O          -0.07376988077339   -0.84770763063327    1.61768861935650
O           1.34877337340083   -2.71316777135899    0.92652886933988
H           1.72625898483486   -2.81329757568801    1.79526853480614
O           1.49297597449453    1.31028523709026   -2.03559938648614
H           1.47654338902579    0.37540851013287   -1.76652009560816
O          -3.36122884360506   -0.71437826970514   -1.00115305025880
H          -4.01199058949172   -0.54877330619945   -0.31767132728959
H          -2.79588928601824   -1.44432822114475   -0.66825145461637
O          -0.65981092490793    1.74837881349636    1.22011321458686
H          -1.03062990140386    1.59231801547933    0.31866298595283
H          -0.56753869651986    0.84991454426191    1.59046021307270
O          -1.54100009852306   -2.42102259758947    0.03942327616555
H          -0.83009174476522   -2.57544417493644   -0.58811996513095
H          -1.13760153644184   -1.88053430888373    0.74198267799509
O          -1.17354847867021    0.84415794472398   -1.21790133033118
H           0.56783417963881    1.51893355303925   -2.22317270474981
H          -0.55993360931846    0.10627117754305   -1.05048831897646
H          -2.05470773623754    0.42236212386932   -1.27825353374749
N           1.82869701722201    1.98966809355398    0.50741015354696
H           0.81401425160188    2.06978863552623    0.86263090410459
H           1.79743874176992    1.90651816004446   -0.54628215663140
H           2.41594913105785    2.75551458362645    0.81804785105726
H           2.17085953582279    1.05809317066433    0.86682845813528
