    26
        -50.46049639  Gyration_radius:  2.46069021372 Dipole_moment: 6.202
 S          -0.64391281674398   -1.66592843724925    1.25657423932489
O           0.78516966773394   -1.91277211895456    1.37722585756887
O          -0.92647424160466   -0.27725057615325    1.65981375776607
O          -1.19984568729932   -2.00411329095711   -0.02266439897213
O          -1.35636005756170   -2.58606538195274    2.32812197416807
H          -0.83291886642829   -2.47349789651805    3.11586042981933
O           1.04595332944906    0.36352826314081   -1.67610900410205
H           1.34132289038805   -0.57579315082290   -1.71895917036846
O           0.59044797219324    2.98266830854373   -0.58944328818276
H           0.31620451864363    3.77602724824295   -1.05250603402452
H           0.78470930071903    2.32131575975531   -1.26823217631566
O          -1.91325027685587    1.85356424883105    0.23035224798401
H          -1.08281191191687    2.34123570575844    0.12994035907581
H          -1.74249513238376    1.14600631627550    0.87222224754164
O           1.36658467660306   -2.22638912689045   -1.21501920399710
H           1.27997519974876   -2.21186102676260   -0.24196538459082
H           0.52756653776491   -2.58690666735472   -1.51720983207550
O          -1.52026878335486    0.05411599863238   -1.74260927374985
H          -1.56372499477008   -0.76389634841703   -1.21428838802072
H          -1.87879336008247    0.75439536025794   -1.15935478201290
H           0.05154688469933    0.29184368577910   -1.81397648794332
N           1.33779098138615    0.69959751825588    0.87458351564368
H           1.25682681989098    0.57590824587036   -0.21296427820182
H           2.04168625936549    0.06100064059742    1.23800056525751
H           1.53534144244277    1.67552488610186    1.08471481614821
H           0.39972962797453    0.38774186599042    1.27789168226027
