    26
        -50.45484450  Gyration_radius:  2.63966484108 Dipole_moment: 5.491
 S          -1.33087696354735   -2.20581302777757   -0.35322467945105
O          -2.51988831061000   -1.39946039789433   -0.54732258810766
O          -0.61811744566010   -2.49036488213644   -1.57772893072067
O          -0.46609374801352   -1.63103073272962    0.68689680209258
O          -1.79242812716792   -3.60996922821890    0.23717333516980
H          -2.11749782201711   -4.07508618532854   -0.52802709679814
O           0.46075763073127    1.53054914251262   -1.56349182116968
H           0.38488862137426    1.96393166345807   -2.41370901880062
O           2.14532462596491   -0.90957921099149    0.66856439466745
H           1.28543565717990   -1.34103628224162    0.81569241386761
H           2.03022572595851    0.00848877193576    0.94791057952447
O           1.64558701887133    1.93647753418736    0.84957568963446
H           1.28770352491519    1.86962130189904   -0.05891034529021
H           2.48089317305127    2.40137874289873    0.78151383088315
O          -0.65540147539845    2.46284408295244    2.26715262147273
H           0.23451278252575    2.38994906975673    1.87447106283561
H          -0.58383992946393    2.14385960254596    3.16813585154214
O           1.40072222015175   -0.80117660431017   -1.92209925489721
H           1.88427176847330   -0.94717736039879   -1.08094266035296
H           0.67694632844409   -1.46530677524501   -1.91181895397433
H           0.83834898567717    0.59692805410050   -1.75741981132268
N          -1.35316631783059    0.75452474638862    0.29113424872954
H          -2.23907880996624    0.34942957368605   -0.04914984747785
H          -0.85645395361965   -0.12988450361359    0.61431137854843
H          -0.80497481506305    1.15159579537915   -0.49943038313978
H          -1.41780035495905    1.44630711918440    1.06074320253729
