    26
        -50.46877064  Gyration_radius:  2.51422191855 Dipole_moment: 1.697
 S          -1.15942235775923    1.05921310889608    1.12203942752345
O          -0.39849871772259    2.18976659904452    0.63521836866064
O          -1.69382968721139    0.20800726752536    0.07345959500874
O          -0.42882381334303    0.28727322223727    2.12189521317953
O          -2.42853352385541    1.65865629848674    1.85778529822430
H          -2.06783873549640    2.35841624616003    2.39344831572142
O          -0.02894612268027   -2.31781057063260    2.38404915658582
H          -0.26967167589453   -1.36670647831507    2.42941812109278
O          -1.02329797598516    1.91868450743551   -1.92961165995499
H          -1.66582843197309    1.24530398375713   -1.67730778177053
H          -0.69508087492111    2.23523537699139   -1.06718161558798
O           1.86532857139479   -1.14108843032629   -1.13217322810759
H           1.61770371543172   -0.58897865015112   -1.90552171300969
H           2.04806093938232   -0.50353013897252   -0.40733657700375
O           0.95472367446066    0.50691076277422   -3.03289029580536
H           0.20649867763846    1.03734262331962   -2.66805024040783
H           1.50659216472981    1.12330924770631   -3.51528428175646
O           1.88251044064571    0.66747318018845    0.84953640227055
H           0.86311325522535   -2.37691453209709    2.73233612195994
H           1.64157521082679    1.53463952092815    0.50727813975426
H           1.14734508339995    0.45554117948226    1.45228589330781
N          -0.38634407321371   -2.06465881165759   -0.25777541025677
H          -0.98128305872049   -1.19957873650152   -0.18846217073428
H          -0.84155545973764   -2.77260445621636   -0.82266374417234
H           0.57136256755437   -1.76328076766764   -0.67988355247632
H          -0.23585979207574   -2.39062155250467    0.72539222768665
