    26
        -50.45484450  Gyration_radius:  2.63966937562 Dipole_moment: 5.490
 S           0.61365520018181   -2.51208251775613   -0.27351376716069
O           0.94779628145058   -2.32325492514413   -1.66674866165540
O           1.72762829603430   -2.28723434522792    0.62656484442837
O          -0.56409840129348   -1.73537010802249    0.13842077525223
O           0.16829251261059   -4.03221844746586   -0.11822468508586
H           0.81809516295968   -4.50600913566801   -0.62900911916833
O           1.16864459704324    1.73890736538430   -0.78125970226891
H           1.92595694574591    2.18624927231540   -1.15915759456830
O          -2.10885956771575    0.04692070418450   -1.19481688458541
H          -2.01601800814860    0.78717874814256   -0.58038342839316
H          -1.74633260111448   -0.72864886283866   -0.73192522280376
O          -1.23851864450743    2.35404055561076    0.32251516589294
H          -1.63314688975126    3.14030900605317   -0.05768001511394
H          -0.37036248535024    2.23754103871762   -0.11412069476726
O          -0.60289939841632    1.66962478801198    2.91264101899594
H          -0.92878636984950    2.03415156357363    2.06861214284204
H          -1.36704709282200    1.31784635241729    3.37193156268826
O           0.25461130313479    0.10211128012023   -2.49431984810791
H          -0.69867351331910    0.09021743388041   -2.26237485445016
H           0.83769255534962    1.08960735195143   -1.50285479009434
H           0.57000387500538   -0.80736732086391   -2.29837494498653
N           0.86497849578724    0.05434784558104    1.31694013104124
H           1.59798838458122   -0.65607730553401    1.46776818682265
H           0.09842954012956   -0.55532613310071    0.89971947114876
H           0.52200541078354    0.56073162896387    2.15417251196758
H           1.15896441148478    0.73380415671081    0.58547842213044
