    26
        -50.45484448  Gyration_radius:  2.63968538766 Dipole_moment: 5.494
 S           0.98367058618623   -1.28356605587030    2.03625328294141
O           0.08236017180322   -0.52881563407279    2.88458756706925
O           0.42914589464375   -2.53414752946152    1.57050089501459
O           1.50291725256642   -0.45019834631204    0.94267787678512
O           2.26541101918039   -1.65339178742827    2.90437177467815
H           1.96880931597041   -2.38745857880673    3.43425099238035
O          -2.06419639671610   -0.22114644600162   -0.82991297039654
H          -2.97905000581621   -0.50300105632823   -0.83779331398089
O           1.48771174599474   -0.78453257240665   -1.74589463579232
H           1.04942064437228    0.04469930388208   -1.97913887265406
H           1.72417341662735   -0.70375613259288   -0.80527391632008
O          -0.15267646190974    3.38076650674153   -0.42839916535489
H           0.72053155828917    3.77462361481643   -0.46013947291506
H          -0.22030282220092    2.79070332313827   -1.20216137677642
O          -0.38848933004766    1.35527578927069   -2.27854911624914
H          -1.06087655894635    0.79125340991818   -1.84534469581786
H          -0.59514868678130    1.35835064357897   -3.21438098459653
O          -0.57971517799030   -2.28114681960635   -0.87199043209535
H          -1.50567389036326   -1.08120425342214   -0.84379794034978
H           0.21080393198541   -1.94127340019650   -1.34340158371206
H          -0.25978022182130   -2.48855674059251    0.03335511250129
N          -0.54882000929123    1.10658755639521    0.97914951272996
H          -1.28089941726345    0.65233943440643    0.39526899920266
H          -0.47448589896629    2.11181337405444    0.73620996730742
H          -0.68424258890163    0.87503435462109    1.97554805613885
H           0.36940192939395    0.60074803227347    0.79400445026159
