    26
        -50.46846763  Gyration_radius:  2.39938298826 Dipole_moment: 5.641
 S           1.20474943513538    1.34030466458674   -0.25332398020618
O           1.77131175050826    2.12722757815097   -1.31504344444126
O          -0.25077307118892    1.27749701143862   -0.32337540196068
O           1.74925230650256   -0.03923752631755   -0.23664257212421
O           1.58380140882110    1.97805464365313    1.11734957303808
H           1.05569622094987    1.49413193298672    1.79694259471486
O          -1.60550512056738   -1.90898437960188   -0.03726024039293
H          -2.41972141265201   -2.40942042106196   -0.10246620966972
O           0.26827641756990    0.50032360803249    2.90006402854364
H           0.76472961829070    0.53526440325624    3.71956270360862
H           0.45038466492581   -0.39474991203118    2.49686862613307
O           0.76272750769634   -1.69200359083669    1.57130726933838
H          -0.03069322509010   -1.98953967122825    1.10528911016870
H           1.26891345837300   -1.16412807298633    0.91557387010722
O          -0.09849854654675    1.38904141440753   -3.03960028851568
H           0.68680770447482    1.74412174039337   -2.56146372867769
H          -0.84120865227318    1.81457450444194   -2.60069467508657
O          -2.05818782463743    0.29141725598323    1.26991544369744
H          -1.47902612724095    0.79698213646883    0.65528178634223
H          -1.83395234551683   -1.07797350549988    0.47791384457859
H          -1.60078242223244    0.35255511420008    2.11669551857189
N           0.11520535409753   -1.02228441579928   -1.95955947608478
H          -0.11284745213303   -0.12381183950475   -2.47978854205490
H           0.43249876839349   -1.75109626049911   -2.59026004315372
H           0.89125075676348   -0.71895202138312   -1.28033146720160
H          -0.67440917249414   -1.34931441137268   -1.36295429916982
