    26
        -50.45835404  Gyration_radius:  2.59568967464 Dipole_moment: 7.798
 S          -0.06029554723568   -1.83946134793438   -0.38734125832658
O           1.40531565861440   -1.66063539687630   -0.32713510720025
O          -0.62680120729468   -1.88043682167473    0.94589296972496
O          -0.65868072067312   -0.82563116466771   -1.23880486132482
O          -0.31526031483382   -3.22065036199882   -1.07709331428791
H           0.10326859985421   -3.85758885127406   -0.46466526924874
O           0.79950540309348    2.11283373423372    1.19444661170582
H           1.35387944688398    2.16419251244694    1.97368857178774
O          -2.42173840621108    1.13853135367395   -0.58706843484333
H          -2.01117145870021    0.32710049888714   -0.92889106545893
H          -1.87180230579495    1.86481340637441   -0.92002515102514
O          -0.50537205308624    3.16546419377102   -1.03031769663248
H          -0.97727420371990    3.99871291212813   -0.99146091558621
H          -0.10248601019295    3.03265349007284   -0.15887067901651
O           1.04004482832821   -4.01805919681404    1.05645439146003
H           0.37626873137179   -3.48095213982782    1.51292388776254
H           1.69819635688055   -3.38063115953293    0.75152652486960
O          -1.19278997908218    0.61778196636190    1.73421979614437
H           0.00604329149452    1.52479732124019    1.45825359434270
H          -1.83633994765433    0.85406534128002    1.02831377290989
H          -1.00068802974818   -0.32818184458505    1.57596167329592
N           1.39321663121707    0.77425689553928   -1.04124011173606
H           2.00661300012201    1.19173535569557   -1.73239961283849
H           0.44758917446083    0.57632616349522   -1.42190629627802
H           1.66492944824409   -0.22533329145605   -0.74064825070715
H           1.28582962366449    1.37429643144484   -0.18381373949183
