    26
        -50.46173144  Gyration_radius:  2.49824756699 Dipole_moment: 7.268
 S          -1.46176987982055    1.42523665270659   -1.19266029625594
O          -1.72492318054348    0.77937516586243    0.09433283675473
O          -0.49149473687283    2.51065289802201   -1.01563784151011
O          -1.10540707795478    0.50183081642198   -2.22952143142511
O          -2.81469416379874    2.12822385042517   -1.61647265771490
H          -2.93937663594061    2.74463282374974   -0.90282757478417
O           0.55814315436930   -1.85064746193148    1.69803176107448
H           0.60194741410563   -2.68858152649812    2.15935300812470
O          -0.18754824573854    0.73250481322593    2.27031009453480
H           0.04456490859777   -0.21198948284072    2.31015839033768
H          -0.91624826549327    0.78357586580958    1.61554996320201
O           2.21869243438545   -0.94349988988257   -0.17940514332409
H           1.64742821507080   -1.32703643913402    0.52968269642254
H           3.01922186870798   -1.46894644877062   -0.20540410089077
O           0.19698512300176   -1.83237423956683   -2.04388261882890
H           0.99632717793660   -1.50281286985430   -1.61334482829629
H          -0.28456387152805   -1.03564253952078   -2.33213645192947
O          -1.42357061202486   -1.88870718219388    0.09206531937162
H          -0.26429282045281   -1.90855425021036    1.09558999737716
H          -1.68943066321295   -0.94865438370363    0.05473821557366
H          -0.95878469578129   -2.05325431807341   -0.75896540290851
N           1.43003802790345    1.61974322312689    0.43194269783684
H           2.13764712361052    2.31537539458050    0.64038496231142
H           0.87357311635659    1.33151636686609    1.30622447286269
H           0.68687693479461    2.02266296449791   -0.23982670514254
H           1.85065938032365    0.76537018690001    0.03172063723925
