    26
        -50.46975343  Gyration_radius:  2.44504326091 Dipole_moment: 3.660
 S          -0.34703691770924   -1.86609069182129   -0.05546064270903
O           0.67600771877684   -1.22325199936582   -0.85790057546372
O           0.15610098288422   -2.45213576906755    1.16210881473778
O          -1.47905963018460   -0.96350460906600    0.16803413840678
O          -0.93589559171821   -3.06473596744767   -0.91242870114386
H          -0.53399481898958   -3.80608617859193   -0.47339456958089
O           0.75482439737251    2.47828896117405   -0.24868466142928
H           0.75682742245128    3.39816958772990   -0.51423202157273
O          -2.46108067656014    0.16115739972969   -2.03468266995673
H          -2.73684882032033   -0.53775183151983   -2.62974472930126
H          -2.19540954662868   -0.28070691970759   -1.20237967840028
O           2.54238301187396    0.29996417943441    0.39813420095218
H           2.20941393109965    1.17422377954628    0.15858621403741
H           2.03180192910695   -0.32815184548179   -0.14289552725031
O           1.26358961233326   -0.47952224007649    2.58610921058122
H           0.91577677239921   -1.32455184262259    2.23355290568906
H           1.96940527770568   -0.22055482265838    1.94866284152128
O           0.11337961377545    0.98852128131150   -2.25790071825841
H           0.42003065057672    0.13435669652712   -1.89661911209425
H          -0.85546162097460    0.88663069832706   -2.32566589708446
H           0.51807964425290    1.94856771201998   -1.07243114351481
N          -0.57538799371732    1.04370556951603    1.60506972857901
H          -1.22448954780223    1.51745935079837    2.22326509625529
H          -1.06389656119627    0.30744484732577    1.03281638720015
H          -0.10777125794685    1.71470818995844    0.95425255470443
H           0.18871200901702    0.49384646404206    2.15382855506094
