    26
        -50.46004342  Gyration_radius:  2.4978790622 Dipole_moment: 7.441
 S          -0.14173380551854   -2.14593140268849    0.75630286831056
O          -1.55659627869368   -2.00611926746805    0.53725019991084
O           0.66014289645822   -1.66375006105532   -0.38310379935191
O           0.35225596709319   -1.55573038178619    1.98512975673854
O           0.12940129164825   -3.70507539024199    0.84321456007251
H          -0.71762703730753   -4.03217834078895    0.56054083380246
O           0.69361496318812    1.93733020931525   -1.70460516345471
H           0.91939945762258    2.43497646714410   -2.49049415559322
O          -2.64476929158053    0.07411732292746   -0.84711514490103
H          -2.35108621740238    0.84360267337527   -0.32692313980494
H          -2.43298701235692   -0.70553686764610   -0.30582770584855
O          -1.21255782975014    2.06368447501100    0.43136614821496
H          -0.60381930264603    2.23236159706703   -0.29972502344738
H          -0.67780105918692    1.73071738768099    1.16511582793706
O           0.58869333203560    0.97147971729395    2.31965730271696
H           0.40244968217241   -0.00659707822766    2.26095493869613
H           0.61852308996495    1.18185205301505    3.25401222023380
O          -0.51917567072574   -0.20678302764077   -2.36089835236702
H          -0.09887389586489   -0.87470711453304   -1.79166339434569
H          -1.42441820150507   -0.09134253187071   -1.96593227963182
H           0.17682896892486    1.11588946719490   -2.02892721680100
N           2.00112360685533    0.49318221417453    0.08161516474854
H           3.00960417099889    0.39524126300732    0.05230806645982
H           1.67098780762128    0.81960984119589    1.01154586220375
H           1.64200577238378    1.15380741451549   -0.65833210248413
H           1.51641460557055   -0.45410062897095   -0.09546626201428
