    26
        -50.46297754  Gyration_radius:  2.72647590216 Dipole_moment: 3.031
 S          -0.05313464444210    0.67748793594043    2.42603502632618
O           1.25539000905046    0.16105098790838    2.04735840607860
O          -0.20791480118986    2.07972928454391    2.08936612159306
O          -1.12612495130655   -0.16877378542157    1.92629150016934
O          -0.14560632926358    0.58088526085500    4.00947090088479
H           0.44594109732165    1.25575659392368    4.33039559371991
O           0.20397105890683    0.78659006394673   -1.47661267900420
H          -0.61671770748513    1.19264260399308   -1.10365593763433
O          -0.40870302439898   -3.23042326005622   -1.74065306678416
H          -1.29111106087478   -3.59370836463398   -1.82771633660456
H          -0.31703431117028   -2.55732461356551   -2.44951087400853
O          -1.78982708387987    1.72807150859463   -0.01382565700034
H          -2.28863218395223    0.99392657173841    0.35632656054050
H          -1.25536414493763    2.04687457428611    0.74237470466097
O          -0.16384153479910   -1.12721004634489   -3.41196401804042
H           0.51856979826569   -1.04101349678922   -4.07904311761198
H          -0.08332487657623   -0.34643256575352   -2.83496765366157
O           1.87297820953523    1.96049451692773    0.19610394060763
H           0.93649505127646    1.29326527463261   -1.04721330725571
H           1.36115772653990    2.68950143198825    0.56085188900067
H           1.82142519696360    1.27316816687630    0.89227845134567
N           0.26910501129880   -1.36504222636160    0.07860245850718
H           1.16977749176174   -1.42940425208153    0.55181370222200
H           0.01087209747923   -2.23266871285772   -0.44002610084986
H          -0.41908139870998   -1.07562750385637    0.82534528492373
H           0.30073531456425   -0.55181595844274   -0.60742582210035
