    26
        -50.46004334  Gyration_radius:  2.49785379309 Dipole_moment: 7.439
 S          -0.80333869445953   -2.09626240944148    0.39578626150949
O          -0.66304949272133   -2.29132004507431   -1.02252077158268
O           0.38914078584293   -1.47975773621172    1.00537344887114
O          -1.99031758201492   -1.36988936552398    0.80295629786828
O          -0.90447475107825   -3.54822143000410    1.02316242148085
H          -0.67674116176129   -4.06981780853529    0.26119623987323
O           1.77764388143381    1.99005308860616    0.14057907503896
H           2.58444780227856    2.50105505431628    0.20581775780227
O           0.69617436566784   -0.56067713888778   -2.63022168778791
H           0.20822246647564    0.27164334720896   -2.49576515901772
H           0.15324196863524   -1.25356404185689   -2.21687342154558
O          -0.46069886355145    1.74357337329080   -1.63200805107396
H           0.30691904552638    2.02438099083813   -1.11686354310513
H          -1.16893622212266    1.56545554326076   -0.99802136647192
O          -2.26381336939631    1.15336302576879    0.46610913921330
H          -3.19086099524602    1.39421629646490    0.49333843106525
H          -2.23428367350087    0.15733402345771    0.50784547481635
O           2.32333192852677   -0.39429613043399   -0.57763818766867
H           2.05645323566995    1.06232908261151   -0.18902815519859
H           1.76671058830977   -0.93005288867356    0.01391920068299
H           1.87955945664872   -0.47700875489237   -1.46364292969731
N           0.04177053644681    0.94053220701373    1.83491687406024
H          -0.89913176903603    1.21174595530259    1.48657701440285
H           0.17310582636884   -0.09771471585058    1.57317598223316
H           0.77241183478791    1.47763157154783    1.29583905787712
H           0.12651287226932    1.07526891569785    2.83599058635376
