    26
        -50.46590961  Gyration_radius:  2.55471723854 Dipole_moment: 2.200
 S           1.06910963614295   -1.77883157262787   -0.61335782757401
O           0.27273755101178   -1.87905881703493   -1.81886079700552
O           1.82129939381008   -0.53036514090970   -0.54690778305745
O           0.31266172508305   -2.01097290318844    0.60437009098336
O           2.13329938216727   -2.95098550572280   -0.68849709175140
H           2.37534934976086   -2.97088165508735   -1.60905017659287
O          -1.57008697066529    1.25121131497718   -0.44197647991887
H          -1.04950099422768    1.18226257167008   -1.27662273221192
O           0.13439083087325    0.70294578865154   -2.41361773169524
H           1.01472515542960    0.92213264484114   -2.09474698121095
H           0.10042839808061   -0.27327249613676   -2.35304756633690
O          -0.22794070925482    3.60839756553715    0.53659824153757
H          -0.33967767394562    4.49331823229043    0.18828203841626
H          -0.92411407063571    3.06629127057138    0.14203138364846
O           0.13088181180370   -0.89614154807142    3.00625966149319
H          -0.74683999923432   -1.11837210436120    3.32282280413337
H           0.28787417082876   -1.47105807215245    2.22882592781042
O          -2.10181239232015   -1.36583551817480   -0.33828000276298
H          -2.00735115754430   -1.66614283137597   -1.24684864087061
H          -1.29017330180952   -1.68438763267552    0.10018105817155
H          -1.99478404531214    0.36926337435055   -0.35610043198574
N           0.53431811424284    1.01197246427741    1.15526233669751
H          -0.37863171145974    1.10462481404028    0.61740546701574
H           1.18349990104025    0.46157201519421    0.53526860234559
H           0.87449978027543    1.95678990372157    1.32991804888142
H           0.38583783624145    0.46552383731285    2.03068857202893
