    26
        -50.46862989  Gyration_radius:  2.50063113573 Dipole_moment: 2.825
 S           1.61171843462087   -1.45547943668422   -0.12375899622299
O           0.74725374392373   -2.50927753321148   -0.60195045490578
O           1.95445836361150   -0.48511051284404   -1.15015918806242
O           1.11314590800947   -0.83313784302023    1.09974384881055
O           2.97654435545084   -2.14357628630469    0.31013543167804
H           3.22309325459586   -2.64569851399097   -0.46026073709718
O          -1.77903477881377   -1.88222568793100   -1.10815083735529
H          -0.91273447678939   -2.33715030482212   -1.04948713928359
O          -2.29641401439771    1.68541182063075    0.89641768224645
H          -1.46624514011513    2.14369147033652    0.64649047937274
H          -2.83500648985474    1.67918686373300    0.10176538677296
O           2.17502637321013    1.54197494001450    0.53685749601711
H           2.32068894850538    1.01421804007060   -0.27029911194337
H           1.88930496512271    0.86058858864680    1.16494794674866
O          -0.04760091968993    2.76982530096833   -0.09762052578943
H           0.81119857193550    2.34810439146243    0.18878718900188
H           0.13894070986208    3.70266854492753   -0.20853653724188
O          -0.52490507589745    0.44518565434189   -1.64022309159140
H           0.37723543924674    0.08063879765511   -1.61890597780330
H          -1.56228735266286   -1.05059753591252   -1.56725628363774
H          -0.44499813987531    1.33215373016584   -1.26299523035492
N          -1.51038251359104   -0.85589313574212    1.27010492250189
H          -1.89159903348360   -1.34218199260521    2.07356408329696
H          -1.76823523384524   -1.34198117049564    0.34359698737836
H          -1.84423648803397    0.13989388316393    1.22971159171897
H          -0.45492938105974   -0.86123207254484    1.29748106575119
