    26
        -50.46590895  Gyration_radius:  2.5538257628 Dipole_moment: 2.220
 S          -0.18156685173869    1.40120859970436   -1.63509475117325
O          -0.52399884698456    1.87720358802501   -0.29899343241116
O           1.24889859352538    1.37201882728302   -1.85965537770275
O          -0.84416983612585    0.14558640123728   -1.94031001997496
O          -0.76905959327635    2.45693122123371   -2.66081484806352
H          -0.12148877275181    3.15479688318719   -2.65575344382902
O           1.29449175420315   -1.22564885253625    1.02507827669304
H           1.72877012236715   -0.34042640780135    1.00992885447449
O           2.04164718172978    1.30600403105188    0.67121840894492
H           1.33153755208524    1.85981628810205    1.00857759681743
H           1.92670071958102    1.34479018304537   -0.29993662730326
O          -2.70779584445452   -1.37256565524171   -0.81472669163502
H          -2.54771721410392   -2.25858964391780   -1.14538437469860
H          -2.17241157176163   -0.77634151609056   -1.37825707931820
O          -0.02716924077069   -0.82631190626125    3.55715123459947
H           0.40999882480588   -0.80661448960274    4.40884354735652
H           0.62037406599872   -1.16017748790171    2.92206197153150
O           1.26656032007794   -1.46325523653059   -1.63641539866327
H           1.36885117523066   -1.54014838701862    0.09705046985031
H           0.44448381856853   -0.97751025267056   -1.83791701752348
H           1.96365911676079   -0.87286814411912   -1.93664161008843
N          -1.17489538376274   -0.26011281427510    1.09409352770586
H          -1.89104493098511   -0.78802172885386    0.55077991742133
H          -1.41808775991226   -0.15900158213975    2.07878450611777
H          -0.23689544109656   -0.76025996274402    1.05508028642775
H          -1.02967193723364    0.66949803485824    0.62125206445101
