    26
        -50.45472198  Gyration_radius:  2.51435127762 Dipole_moment: 7.535
 S          -0.89187435181531   -1.59678970956083   -1.06074833007897
O          -0.03146158621004   -2.52008177697477   -0.38342680290717
O          -1.65306572521732   -0.72137582987063   -0.16198865801851
O          -0.25233052558082   -0.80368965436271   -2.10875761324543
O          -1.98526112242510   -2.47526412175230   -1.81583226033886
H          -1.87714257355806   -3.33604926916616   -1.42399183674160
O           0.49553006347875    2.41483948731365   -0.09773714147152
H           1.04514534355652    3.19882891013098   -0.11496607082874
O          -0.80043696299304    0.87410114080292    1.90140521182067
H          -0.31328356801416    1.49284402450131    1.33901656877165
H          -1.16363216945830    0.19855157490155    1.30627370416241
O           1.03767361445493   -0.54960101428851    3.26978504317824
H           1.51444850995387    0.06798041178740    3.82562970770691
H           0.29615696331906   -0.04814784800501    2.86752298364458
O           2.12765469158126   -1.43149180589546    0.92187857778359
H           1.43762125048717   -1.99302660020343    0.53344657669787
H           1.80574384353059   -1.19907639300945    1.81418998180850
O           1.86245204223462    0.42208489652835   -0.90369467432773
H           2.11038880269044   -0.21396143227669   -0.17999431883149
H           1.25980476740126   -0.08604903864310   -1.47093958337495
H           1.09998757228391    1.64072102600320   -0.37057693205355
N          -1.45212960624640    1.38496791355175   -1.56159335450421
H          -2.16881706273053    1.89478274324456   -2.06511174574476
H          -0.76754582648851    2.00544161074575   -1.05697702193394
H          -1.82555087349153    0.68167412756093   -0.85373296147870
H          -0.91007551074448    0.69778662695633   -2.14907905922167
