    26
        -50.45602543  Gyration_radius:  2.61242143259 Dipole_moment: 5.406
 S           1.07753461486060   -2.33595725567323    0.32577920388506
O           2.17896693023600   -1.60266554829941    0.96094204014563
O           0.07200272992290   -2.73540762802199    1.29793115554848
O           0.54380669548672   -1.60991426336050   -0.79794204093259
O           1.70888819027214   -3.68026762453693   -0.23824983443167
H           1.93262326847128   -4.16873409669906    0.54909646191322
O           0.77602877079741    1.44612701153425   -1.78872597578654
H           1.49566706237918    1.11326212269359   -2.32652472823747
O          -2.45714176052317    0.89050636296704   -0.04561562131381
H          -2.14056709889687    0.29502340371494    0.64953528239782
H          -1.93902659547940    1.70624019923056    0.05141895727404
O          -0.68188146902915    3.06792003143768   -0.08112392436983
H          -1.15665357222495    3.81871606832067   -0.44054822975153
H          -0.15633433133623    2.70057366578337   -0.80849415251996
O          -1.03927625830930   -0.49807855533215    1.89727617785836
H          -0.68597837262147   -1.39594581879471    1.64175344077800
H          -1.32344914649089   -0.57973279723919    2.80941911107769
O          -1.19654775394514   -0.12632964172780   -2.20040719506990
H          -0.71479065461747   -0.87417624559510   -1.80662523920929
H          -1.83039927273684    0.17137128068507   -1.51177102426141
H          -0.02408989866362    0.86278428849495   -2.03374206573384
N           1.12098755149265    0.73279502737359    0.78565467827741
H           0.20291363158494    0.49317945650807    1.20927967426195
H           0.99141589484777    0.97263001330539   -0.23458537395113
H           1.54910752487220    1.50973232446207    1.27948483085289
H           1.69619331965104   -0.17365174123230    0.85678437130813
