    26
        -50.45934883  Gyration_radius:  2.5813206294 Dipole_moment: 4.047
 S           0.61571124434515   -2.32558804607558    0.12351171618538
O          -0.42603190065806   -2.86185849011848   -0.72960868712372
O           1.53373958732630   -1.44372582763277   -0.57659209728441
O           0.12170763700120   -1.69804717770687    1.33768471677774
O           1.46278859090542   -3.58731387770064    0.60471255462236
H           1.41203055164000   -4.17674704719426   -0.14145185626668
O           0.91811883208469    1.92528016018277   -0.98562539224498
H           1.64729574637554    2.40056973544122   -1.38496617296659
O          -1.96992725931464   -0.80147870703412   -1.08710829545089
H          -1.42461494698907   -1.60287907375571   -0.89300589982065
H          -2.86683365596026   -1.11756542633459   -1.20939534100382
O          -1.72243233237740    1.72004388905660    0.03234752912747
H          -0.92390635079594    1.99626869059167   -0.43661738319801
H          -1.88457770380724    0.80597462366203   -0.25713777005205
O          -0.87392300738113    2.16482537661816    2.49491040222790
H          -1.36979542829143    1.97454432695909    1.65994472191622
H          -0.91203694637090    3.11445331815835    2.61658052352679
O           0.33183868674100   -0.08871576569350   -2.48483916486615
H          -0.59417045126593   -0.29162579456157   -2.28457467396709
H           0.69420210248803    1.18246569711607   -1.62947001143138
H           0.84923769526294   -0.70327623811891   -1.91918895499572
N           1.09566845036524    0.69348110517613    1.43657360158709
H           0.69989084007873   -0.30470067529733    1.39644859560660
H           2.02301834194955    0.66361566560725    1.84529417315631
H           1.12993923383009    1.08539957740574    0.46710485662723
H           0.43306247282072    1.27659997124536    2.00446832930307
