    26
        -50.47208584  Gyration_radius:  2.44292350205 Dipole_moment: 2.404
 S          -1.00446140148416   -1.79297624310831   -0.15867694803411
O          -1.55312309428229   -1.17113847475117   -1.35062397653349
O           0.40434452655050   -2.13319022936831   -0.32461511567116
O          -1.24250388106130   -1.04144222510663    1.05702800367702
O          -1.78508856529530   -3.16058413370050    0.01380877110394
H          -1.84376283440417   -3.48440165682857   -0.87914889340248
O           1.84121690323528    1.49958694691928   -0.92203094926032
H           1.42177215850231    0.97558358729613   -1.64032520029184
O           0.66289428493227   -0.30475481756936   -2.51022191438659
H           1.19334119103866   -1.09671295080276   -2.39454368508418
H          -0.21958636820895   -0.55243621797910   -2.16710422210159
O          -2.38339074855769    1.06504322572788   -0.06654149543389
H          -2.36441470829994    0.65637892678697   -0.94057834422246
H          -2.14740169922693    0.32069927517798    0.52015597667370
O           0.26452681474105    0.67706661241882    2.50011057085977
H           0.08076622722573    1.47021994937775    1.96456867119655
H          -0.40936750965214    0.02916021073529    2.22755634658145
O          -0.28039049481138    2.52666397213700    0.50771609630262
H          -1.09771616103331    2.02872918655621    0.23497496224561
H           1.12198426832063    2.00629314150703   -0.50521096099628
H          -0.54466963241095    3.44214819666601    0.60582443217059
N           2.00812626532562   -0.40626728825937    0.85671468748759
H           1.42484468350940   -1.17057781749976    0.42197228513701
H           2.09978065783733    0.37689499943764    0.12832171649211
H           1.44337064618963   -0.00199937247799    1.66164377091775
H           2.90890846131935   -0.75798679328569    1.15922542456973
