    26
        -50.46085907  Gyration_radius:  2.53245373679 Dipole_moment: 4.719
 S          -0.43785587047308   -0.06525962208744    2.04232122032322
O          -0.34751207761820    1.02962925565379    2.98625002580221
O          -1.45120922155959    0.21537268669739    1.01050072562773
O           0.82771512895865   -0.42637123995450    1.45179614220235
O          -0.96366224782415   -1.32604950572628    2.83824499886017
H          -1.67155747609020   -0.97901999881934    3.37327521435306
O           0.52812210416045    0.59192247121660   -2.31508699546252
H           1.10642262214418    0.79470460479903   -3.05096153017974
O          -0.29257522603501   -3.16344268464379   -1.41757826645730
H          -0.46781418972468   -3.66154839741851   -2.21670898039570
H          -0.96207001730981   -2.44332964430838   -1.38602470573983
O           1.60646021932050    2.20198711994136    1.68996039701538
H           0.93365390116440    1.92516424904177    2.35380075261622
H           2.13225967537982    1.40482359825335    1.55999809230563
O          -1.77849072799796   -0.92819685332685   -1.43762520599475
H          -1.77276289844832   -0.60683088367738   -0.51844657343800
H          -1.15542680444482   -0.36721044327025   -1.91716602573556
O           1.60687770236434   -1.28744311814482   -0.95919297791262
H           1.41200731323072   -1.04135636475601   -0.03419730603330
H           1.06704395976916   -2.08836019597198   -1.11786289362876
H           0.98471984518917   -0.16246268061015   -1.80270153076327
N          -0.18298995843160    2.10555176296819   -0.24410360133405
H           0.61803617234510    2.26907800880546    0.43817220635007
H          -0.81878685153976    1.40355168180324    0.24466701503730
H          -0.67894387389936    2.96686354731125   -0.44786951117826
H           0.15833880732688    1.63823264626498   -1.12346065623817
