    26
        -50.46600679  Gyration_radius:  2.60572443828 Dipole_moment: 3.840
 S           0.42294214054698    1.73869504690093   -0.44093190353755
O           1.35872255236026    0.97999258772700   -1.26010115565776
O          -0.91499934648813    1.73878819975429   -1.04847250816076
O           0.37273213555226    1.27630965801460    0.93306520997587
O           0.91340643564441    3.22366230660212   -0.40520866757181
H           0.91656612910193    3.48045598804982   -1.34836487844549
O          -0.50226720666285   -2.34465601935394    2.56900721418043
H          -0.21084225455183   -3.06782941719894    3.12479545861467
O           0.57948552033209    2.91441246788558   -3.01556155931369
H          -0.30379229733642    2.62214739325529   -2.75323979117888
H           1.14409306437472    2.14440882353308   -2.86193647996994
O           1.12972615880746   -1.59697644953766   -0.97215995170919
H           1.21291858231364   -0.61813019469210   -1.09864151386250
H           1.58414612805993   -1.99793235794084   -1.71487090205783
O          -1.31905171544918   -2.29006425697807    0.03715417662224
H          -0.47025917398879   -2.13645807827172   -0.42005613157372
H          -1.07667072529393   -2.53016039410228    0.95920332546042
O           1.60320058891296   -0.99283370410663    1.72137215819602
H           0.30933954133475   -1.81240485904492    2.36433626679094
H           1.69540215596781   -1.36766327779700    0.83340683369809
H           1.29526712658680   -0.08106979560944    1.56856346697031
N          -1.98969482661175    0.13830604577764    0.66036047473371
H          -2.90411335480192    0.27726905549327    1.07634568439484
H          -1.80105369892769    0.78214209927154   -0.16270726859056
H          -1.22251472426165    0.41158519020590    1.29612913638978
H          -1.82268892552247   -0.89199604784123    0.35851331560449
