    26
        -50.45472197  Gyration_radius:  2.5142740236 Dipole_moment: 7.540
 S           0.85782579009500    0.19498199839531    1.92311195483631
O           1.63530454563456    0.37211990293305    0.69143074285696
O          -0.03864009946251    1.27549427059911    2.20681522730712
O           0.25466566571335   -1.13637642074483    1.94709892870948
O           1.93169635558483    0.18393764211076    3.09941477919111
H           1.78843391225362    1.02132215257963    3.52897551874989
O          -0.42026140032540   -1.59522510383315   -1.83230475126572
H          -0.94556719479112   -2.11086717757990   -2.44481942190749
O          -2.18105200075364    1.55110987475505    0.50843858767154
H          -1.50291808122347    1.61844715470905    1.19978295068154
H          -1.86427097191145    2.11195270554497   -0.22578034350243
O           0.80362580423067    0.96333214359976   -1.85575279017681
H           1.15410865747235    0.93096572950100   -0.95099176458026
H           0.34277365416026    0.12380321929904   -1.99489903063406
O          -1.09801684229577    2.86356446212884   -1.63204235654796
H          -0.33467018349461    2.25989406935238   -1.75878256628064
H          -1.56504833315195    2.89103816467715   -2.46796096965809
O          -1.83814304807181   -1.02357366682074    0.20527915726620
H          -1.04499065075353   -1.34404517932680   -1.06689509289168
H          -1.24375590913958   -1.13196676392845    0.96560738833427
H          -2.11412959279987   -0.06865948840966    0.24612609444704
N           1.51374279720062   -2.04086387384892   -0.08342969315664
H           0.95768402667211   -2.08357290289262    0.81151898316243
H           2.25004249283714   -2.73363838210904   -0.15430032586195
H           0.84220461183448   -2.05345616874450   -0.89395549222466
H           1.85935598253830   -1.03971835319946    0.02831430576545
