    26
        -50.46862995  Gyration_radius:  2.50071918456 Dipole_moment: 2.833
 S          -0.10824026587248    0.01888921198891   -2.17264113927012
O           0.00949988839344    1.45606644565434   -2.25774999014222
O           1.15659493839197   -0.64507613155025   -1.90464901668344
O          -1.17261168859420   -0.40350039934387   -1.26613202872099
O          -0.58173347707482   -0.48766030346398   -3.60227077832703
H           0.05396134637287   -0.09748043781962   -4.19387195377102
O           0.43787458364657    2.78214361005826   -0.00149747940193
H           0.34147732895887    2.52757007557971   -0.94314655988514
O           0.78988615917118   -1.92526417057002    1.82926091840804
H           0.48327865224134   -2.25578917222775    0.93795913214611
H           1.14686614774291   -2.68742197211747    2.28648791568852
O           0.06457124204689   -2.65675850780811   -0.57638312935420
H          -0.73769245398152   -2.13730967312350   -0.74091948820026
H           0.72171433783607   -2.17533615140092   -1.11268553504382
O          -0.64221217818706    0.07099819203418    2.91663173245633
H           0.07311458375278    0.62316402687183    3.24057885016959
H          -0.21097010410334   -0.73624117878188    2.56406355049684
O           1.64995506960333    0.42944710108102    0.51526435357291
H           1.51615053201472   -0.34998682764860    1.07200631585892
H           1.61532220826384    0.09536888044290   -0.39817578061882
H           1.10939890582985    2.15835764452013    0.32930157632461
N          -1.57172756563355    1.28586606861885    0.70852858576905
H          -1.50734054987927    0.59307312089773   -0.08558707214133
H          -1.31155182764474    0.80113295875340    1.60411024647965
H          -0.82371113345057    2.03048717764243    0.49123343834905
H          -2.50187468989607    1.68526039177447    0.76028332588258
