    26
        -50.46237369  Gyration_radius:  2.7243714665 Dipole_moment: 4.982
 S          -0.12664076239418    0.13661406097331    2.54439579575621
O          -0.48392258597235   -1.13339168926888    1.90521579750775
O           1.18346014401576    0.57566602181865    2.08027317072767
O          -1.15430139170450    1.14003535202757    2.43602321204171
O           0.02772559542391   -0.17336423977494    4.09352703922697
H           0.80641290276749   -0.71882261814468    4.15898303690856
O          -0.57134920672443    1.04397922238114   -1.25894791997259
H          -1.40354175066104    0.75821868883570   -0.80896558214361
O          -2.46870408364935    0.15366527733926    0.35724090964513
H          -2.15921075062632    0.63074397817687    1.15434037592400
H          -2.32124553589794   -0.77101190843527    0.57606685836112
O           1.32748108506693   -2.37298938622025   -2.38798195955157
H           0.92008221053792   -1.66805971660225   -2.93656339336073
H           0.82603795067645   -3.17071093814836   -2.56218058525743
O           0.07410618342639   -0.29652296867296   -3.56814101177321
H           0.47427664790313    0.31199386107002   -4.19070806290377
H          -0.27170222934030    0.24670897159491   -2.83724165779449
O           0.33371081306462    2.65065387672479    0.63183796067029
H          -0.44188995593110    2.85745126338135    1.16329694884105
H           0.80625877049306    1.98479008626355    1.17044367754804
H          -0.23991637718290    1.79890413332179   -0.71263016410635
N           0.99402128322313   -0.82063648947930   -0.21146874958847
H           0.39516892530905   -1.14585490720145    0.59962166749784
H           1.81357379832750   -0.38698650751857    0.21148737118509
H           1.23370255659553   -1.56400503216867   -0.90231398872105
H           0.42640573324433   -0.06706838227912   -0.70561074666563
