    26
        -50.46272413  Gyration_radius:  2.48099589998 Dipole_moment: 6.121
 S          -1.12842965488055   -2.04679730548553    0.06953468535158
O          -2.13160857626823   -1.93907197721185   -0.95830475737026
O           0.23633148844373   -1.79916112916703   -0.43567110309886
O          -1.36535338855046   -1.27177505294677    1.26232342940823
O          -1.12976731115827   -3.58062731050197    0.50435421140193
H          -1.58930639680575   -3.97444191619212   -0.22990059962320
O          -0.65157281403029    2.25992675944446    0.25711435696014
H          -1.16880872401187    3.06006173745982    0.15513587285035
O           0.79171977914339   -0.03776273147500   -2.43107700848440
H           0.65559152476858   -0.81309169904792   -1.85869617633782
H           1.33060455832671    0.57904072941061   -1.91839656469804
O          -0.25622417446411    0.75120316603269    2.51013661740056
H          -0.83824174745172    0.00032354391383    2.26935536615057
H          -0.48913722056474    1.44395271235288    1.86566272616689
O           1.87174732819205    1.83698621771058   -0.53287175672560
H           0.95265892563943    2.07083522887871   -0.26235925013510
H           2.30750226062717    2.65337030326945   -0.77916667318871
O          -1.64388653920695    0.62834119850215   -1.46533590575636
H          -1.97727679966505   -0.26392857762329   -1.25424930806831
H          -1.08947858293929    1.58279785348573   -0.34918911798907
H          -0.87126816181461    0.46985367206995   -2.04677547755565
N           1.67025511433663   -0.32752794240412    1.13616754942240
H           2.04013514840227    0.42312535037765    0.53436406496377
H           1.09848605321077   -0.99659379815243    0.51884691612588
H           2.41152192855826   -0.82544029073810    1.61517005783074
H           0.96380599215023    0.11640125802508    1.82382783500487
