    26
        -50.46911778  Gyration_radius:  2.45435798482 Dipole_moment: 4.071
 S          -0.15336505554672   -2.22901921750499   -0.13703003554687
O          -0.87995833594005   -2.51341386825318   -1.34013404042232
O           1.16154499160352   -1.62100484019789   -0.37509498051863
O          -0.89559671351016   -1.44512275757669    0.84008775107524
O           0.14171022428553   -3.63211224420374    0.55371143038916
H          -0.04604041098129   -4.24794669874034   -0.14773195645489
O           1.20791807495125    2.27814478464757   -0.78688872011733
H           1.65133444424952    2.91215458395000   -1.35077850122657
O          -2.11399727860482   -0.00399756371089   -1.00020120091524
H          -1.75247713803367   -0.55275527579916   -0.27120525189944
H          -2.56770608913418   -0.62839744633196   -1.57143586043890
O          -1.30372059584045    2.23891446606117    0.53413840944001
H          -0.48009139546547    2.44056752302476    0.06645024469921
H          -1.78813858648888    1.62354602790002   -0.03221498325785
O          -0.45077171834826    0.62501766152258    2.48713119026283
H          -0.88680229574232    1.32070696369692    1.94042942052136
H          -0.78733744576604   -0.21552813779115    2.12751072151008
O           0.34484496544176    0.25060514284765   -2.14341415264194
H           0.72109346915754   -0.53366521832672   -1.70806720519563
H          -0.60830155794273    0.21620651739874   -1.93181878302528
H           0.89118495339952    1.53681496548451   -1.38668868789460
N           1.74997037936369    0.44200019146972    1.13687077344617
H           1.57380871345503   -0.43884569479920    0.57131734871341
H           1.73444953255583    1.24534271353621    0.47865621063971
H           0.90471768374608    0.54963067688512    1.81365142434693
H           2.63172718514729    0.38215675479915    1.63274942451640
