    26
        -50.45602544  Gyration_radius:  2.61241117905 Dipole_moment: 5.406
 S          -1.22982747647013   -0.36101652659911    2.25410843764808
O          -0.17617941666892   -1.22421987080506    2.76443753625176
O          -0.93269708748395    1.05491306516671    2.50140401076246
O          -1.55356904762643   -0.59460931968125    0.87014177121601
O          -2.52903338922899   -0.69512091587985    3.10518139480323
H          -2.22430933291685   -0.64237638581326    4.00679860818910
O          -1.14267398205606    1.10987739999699   -1.83175905092299
H          -2.03488100575552    1.41300978335908   -1.65864984785578
O           1.47429785124586   -1.51078437488502   -1.54159538032278
H           1.65556893204887   -0.62007400653396   -1.88373377241770
H           1.61902383427813   -1.45841159642193   -0.58536943504669
O           1.54730324860862    1.13241224686542   -2.49143569678466
H           0.58216812250660    1.22458841689272   -2.47638831792572
H           1.80306425798971    1.09819002156692   -3.41431355540620
O           1.74932868178918   -0.77852493618856    1.12323644909542
H           1.00766335901421   -1.03539021800925    1.73985454017321
H           2.55756015002201   -0.89022322032887    1.62692526596176
O          -1.21796674508549   -1.43882521135859   -1.65402428830187
H          -1.21107886735132    0.09221070604366   -1.84548031033398
H          -0.26249757606270   -1.66459470340640   -1.68086545615493
H          -1.44896865095523   -1.39109062362003   -0.71021189152384
N           0.40531681752079    1.45869201134140    0.34476314793464
H          -0.18750126856088    1.43625848300457    1.24233271389790
H           0.92125212687437    2.32632163468604    0.23606875641161
H           1.05819375541622    0.65631414089990    0.44311207285749
H          -0.22955730107564    1.30247398968864   -0.48453768221058
