    26
        -50.47250265  Gyration_radius:  2.4873359649 Dipole_moment: 2.899
 S          -1.59958285943894    0.84025031346542   -1.37110259371019
O          -2.25504030786485   -0.45207193116446   -1.43159714333037
O          -1.99036646197105    1.59678513409464   -0.18759957237752
O          -0.15841034731418    0.76427831593097   -1.51566208757889
O          -2.12439732589683    1.66160754092546   -2.61992700495012
H          -3.06508284756069    1.56137328993098   -2.52242624153598
O           1.93444291587552    1.70498603781360   -0.09389021848085
H           1.30801880699012    1.49974302816712   -0.81242067960007
O           2.54666174392254   -0.90935648769465    0.52766134182961
H           1.99690418643777   -1.23890709089264   -0.24153618558003
H           3.37902417979400   -1.38057242675013    0.48743725922429
O          -1.26408202262919   -2.13974672818552    0.25722092674536
H          -1.93845083077965   -2.79602778139378    0.43848852216107
H          -1.67794312319612   -1.48837165373265   -0.36785854847409
O           0.31583667428626   -0.94833297567201    2.14219576156384
H           1.19289443880793   -1.02268165227555    1.72453415019982
H          -0.29284800503412   -1.42802597810755    1.54902435771398
O           0.94008406762952   -1.66741867371616   -1.37725625761015
H           0.55460876049816   -0.79839699910870   -1.60820162799979
H           2.35224970647477    0.85149095179366    0.12309969575810
H           0.23014996114060   -2.12881725185339   -0.90708171781085
N          -0.08188836092350    1.60261094375851    1.58842558856595
H          -0.19888940182196    2.26175623109652    2.34915463726772
H           0.79102426770114    1.80250003221814    1.01244207399352
H           0.00674317693101    0.60425441639997    1.94076051093909
H          -0.90166102214153    1.64709139500938    0.91611503304944
