    26
        -50.47361575  Gyration_radius:  2.43360347752 Dipole_moment: 3.319
 S           0.28568778821385    1.24325780605304   -0.82815457623177
O           1.33280817123098    0.73504226986491    0.07319884262128
O           0.09052946463918    0.33096550630897   -1.93918833474894
O          -0.93904455266380    1.51387931779467   -0.10015436307560
O           0.77846147696898    2.61347753073399   -1.39051080166999
H           1.60923844035941    2.38886186833736   -1.84967889211255
O          -0.82405963120638   -2.38184267784175    0.80130150178501
H          -0.12595335778779   -2.47941208572322    0.11827104293973
O          -1.88764753134925    1.29298836851883    2.36644200777866
H          -1.59713654872456    1.60977040755901    1.48719805653875
H          -2.75818142988711    0.91248087105684    2.22730257345669
O           1.07715634002333   -1.96776140782562   -1.04209282272807
H           0.66941091300666   -1.18228458990666   -1.46405765319618
H           1.88289077865710   -1.64868089668482   -0.63031873789246
O           2.77468695658169    1.05425327270599   -2.18040078629843
H           2.18777975100030    0.50858125191674   -2.71522979137906
H           2.59729303162874    0.80637849862779   -1.25955312502560
O          -2.33767175273519   -0.70122853182070   -0.64032036195051
H          -2.12056135522712   -0.88373379462642   -1.55807091301697
H          -1.54614632572096   -1.90464014353896    0.33560342493965
H          -1.91805780625777    0.16124329235252   -0.45808645961290
N           0.16809522419212   -0.40773655849318    2.15898726511795
H          -0.24234422684061   -1.30222714076024    1.70070779017805
H           0.70988266109044    0.08877671300769    1.40345389234863
H          -0.62823589717511    0.22105002695443    2.43017997716731
H           0.76111940805976   -0.62145916453495    2.95317125403180
