    26
        -50.47361575  Gyration_radius:  2.43351741415 Dipole_moment: 3.319
 S           0.60728112372851    0.81577125178728   -1.13101985045166
O          -0.81664538769514    1.00204000003984   -0.80691654277504
O           1.43963886839393    1.34128937366646   -0.06527502145456
O           0.89269934618811   -0.57317304184879   -1.43513032905604
O           0.89881037910902    1.62369832820110   -2.43433486013925
H           0.67331132571561    2.54125618796783   -2.19197948526723
O          -0.39554957520975   -1.26418868706759    2.28894826918697
H          -0.34996244687579   -0.29589184454219    2.44299713626217
O          -0.37091594068191   -2.90360513158327   -1.50598928951443
H           0.14346085962767   -2.09736887383731   -1.71382415649273
H           0.24462820354951   -3.49406313060356   -1.06506317009551
O          -0.18970903446143    1.39592296584942    2.03338085825062
H           0.49928245460855    1.39843966296842    1.33587246659401
H          -0.97617796533491    1.75669313605450    1.61885660893771
O          -0.01844102791534    3.57410136532696   -0.88707254018569
H           0.68673143486930    3.44682364614211   -0.24296964534326
H          -0.62793056997781    2.83033024864101   -0.75963154299700
O           1.89705530228730   -1.39628953916465    0.90338670126421
H           0.48709659051096   -1.48715162891682    1.91848999919789
H           1.60791103375453   -1.15286725297106    0.00327605163090
H           2.41797881412170   -0.64512940087930    1.19856469587115
N          -1.78209949157405   -1.29181514697342    0.09768466196405
H          -2.79077045088456   -1.36658873034486    0.16894447959329
H          -1.29677734179378   -1.35134453659270    1.06689503635492
H          -1.38233305691245   -2.04127647602218   -0.52010259962565
H          -1.49857344653052   -0.36561274492881   -0.31798793220908
