    26
        -50.46194855  Gyration_radius:  2.51150212314 Dipole_moment: 4.753
 S          -0.82169015539376   -1.48918815794432    1.26908353846057
O           0.04526331689654   -0.95543648526489    2.31444103105522
O          -1.97602182356518   -0.63715008684071    1.04487596061096
O          -0.08941957616135   -1.81482075540361    0.06416898636661
O          -1.38801524122066   -2.86583511497310    1.81346785021690
H          -1.98827490237386   -2.61777510771111    2.51045258378699
O           1.43433872821827    1.05336936277628   -2.53909708966790
H           1.21294913406007    1.64614237671379   -3.25775195529164
O          -2.55125950539812    0.87807943437643   -1.16199251690354
H          -2.57871426791439    0.25452071848367   -0.41776076980150
H          -2.16680991430309    1.68186198857976   -0.80167116767531
O           1.80745389498208    1.75175122028338   -0.02627941247185
H           0.89825959682312    1.86965837306420    0.31560740334745
H           1.71598708554029    1.60519798032344   -0.99943420004567
O          -0.64835132499997    1.66691670187846    1.13047034830250
H          -0.48079298171012    1.83854752410582    2.05908111999905
H          -1.13768327628429    0.81955897545947    1.11115184018260
O          -0.58976679291952   -0.60660622417888   -2.33225970888695
H          -1.37171971427293   -0.06720647929971   -2.10243532314684
H           0.70174565155946    0.38174634697578   -2.50464933406240
H          -0.44083666022310   -1.17594005116309   -1.55993847713038
N           2.13006027834482   -0.65325086703034    0.81733015515089
H           1.62230480199715   -1.23915494655890    0.13354481106396
H           2.11634828020648    0.38710258754158    0.46142704424146
H           1.48055021154468   -0.71529667987531    1.64783589672838
H           3.06409517656368   -0.99679262431425    1.01033136555937
