    26
        -50.46911827  Gyration_radius:  2.45447186817 Dipole_moment: 4.059
 S          -0.24522501773425   -2.20476168766817    0.30215297440768
O          -1.08381475659250   -2.67111181425112   -0.76349760356071
O           1.06469481733141   -1.72033288247800   -0.14996575437344
O          -0.87130974481817   -1.21491495634564    1.16737109030349
O           0.05865046517680   -3.46758487612239    1.22179905840087
H          -0.22092522252958   -4.19230953175996    0.67124457828054
O           1.21783109092635    2.02542716705378   -1.29754755452980
H           1.63363225558227    2.51957785547210   -2.00429992626686
O          -2.19008477044328   -0.08087863071878   -0.81309529922436
H          -1.78714881515437   -0.50227004273729   -0.02352822241462
H          -2.71453437341888   -0.77611705784129   -1.21753017582288
O          -1.17046126484179    2.36403196231952    0.19759064667638
H          -1.72353737998370    1.67928332678017   -0.20156357023496
H          -0.38335385892449    2.43187252055160   -0.36236491049558
O          -0.21149770464382    1.10105726329259    2.34950041738233
H          -0.66731505053264    1.70411618581518    1.71581646111937
H          -0.60822505953256    0.22679934286307    2.18393586964372
O           0.16796158220266   -0.17173193238736   -2.17323612539448
H           0.55161267902298   -0.87940426955630   -1.62714461289114
H          -0.76391118981430   -0.11650910360844   -1.88531796528431
H           0.82390914614427    1.20285738931256   -1.71918709463724
N           1.85661743880621    0.55466754675932    0.89222843231488
H           1.81382312633437    1.22087672439378    0.09650396553362
H           2.77502082002967    0.54244337722454    1.32046364771506
H           1.07721037032006    0.83062966723215    1.59975517736038
H           1.60038041728873   -0.40571356402479    0.51991649602324
