    26
        -50.46911772  Gyration_radius:  2.4543811723 Dipole_moment: 4.074
 S           0.25111942436927   -2.22364450069773    0.06110209460634
O           0.43893367530457   -2.64912032269225   -1.29537752916827
O           1.35175829753028   -1.39950594271059    0.57548457962357
O          -1.02359720154809   -1.56597846699932    0.31170331479142
O           0.25058302412849   -3.54273753326013    0.95139387407525
H           0.60525424132484   -4.19271231494829    0.35286260229556
O           1.12954969828883    2.44118211469961   -0.18174147650321
H           1.73575901163113    3.13402085685407   -0.44449892953897
O          -1.06383458996823   -0.38780383729036   -2.04598679581804
H          -1.14623056240239   -0.85383342409504   -1.18614736295844
H          -0.99690576016628   -1.09050004519744   -2.69694161862239
O          -1.63938547435903    1.98580234688496   -0.60571698276153
H          -1.60029245873539    1.28646863923217   -1.27165753069625
H          -0.73514782324264    2.32057605830471   -0.51633521226515
O          -1.93307462403883    0.57589101322726    1.64632055123934
H          -2.03781366002066    1.17636830488429    0.87080135977561
H          -1.87300651862597   -0.31601371900038    1.25900601736388
O           1.52916150223658    0.27359872629288   -1.53762963585523
H           1.33716705144110    1.64690699010873   -0.76100004600272
H           1.66544407125898   -0.42629853569784   -0.87599659805306
H           0.65528650873923    0.07696794276073   -1.92750738326244
N           0.63739302253817    0.75745872883410    1.88934964507554
H           0.95341405227281   -0.14915233680428    1.43679582619220
H          -0.45003700780323    0.72683613060289    1.91786571807333
H           1.04142489911082    0.85965500673766    2.81309859247389
H           0.91707722067772    1.53556809000120    1.26075290591346
