    26
        -50.45649283  Gyration_radius:  2.5515359872 Dipole_moment: 5.931
 S           0.84091684968683   -1.67153131169771    0.54571711110759
O           1.12768638733496   -0.80583804495930   -0.61189722281728
O           1.59562311222620   -1.31483253433147    1.71446099469414
O          -0.58610682413423   -1.80759014576918    0.72811061738223
O           1.35610147521759   -3.11877502892023    0.11158399746752
H           2.26257839178727   -3.12365419913572    0.40375555900739
O          -1.49466353030628    1.56277623119152    0.11314002380445
H          -2.31468681824798    1.73460778625127    0.57770258846741
O           2.14005944449326    2.82730805949458    1.29214127151333
H           1.98853433067635    2.55805854390007    0.36169995363772
H           1.99424335470777    3.77342159750484    1.33129440598986
O          -2.31863441889420   -2.61030721087132   -1.02857066521938
H          -1.63967024222286   -2.50258492113151   -0.31726481963300
H          -3.15196793798779   -2.74151594115511   -0.57316301106796
O           1.17863124775847    1.89807763941805   -1.05832197101785
H           1.34835161288718    0.95158081781311   -0.90946442014680
H           0.26541249451833    2.04489844891075   -0.78640300848945
O           0.22987835883903    0.97575430681063    1.94608400989075
H           0.67495747612535    0.11049297291884    1.95926783603937
H           0.95132980728811    1.63453392694116    1.88700248154210
H          -0.84455147156628    1.28154896617827    0.82960195010608
N          -1.14203669464462   -0.32528537434659   -1.73828325490943
H          -0.16673274504644   -0.59508691111501   -1.37848592672322
H          -1.44916843389583    0.42679752954009   -1.07130370525578
H          -1.09934739288798    0.01093543306883   -2.69434688401628
H          -1.74673783371226   -1.17379064651295   -1.63405789135565
