    26
        -50.46580064  Gyration_radius:  2.55605367373 Dipole_moment: 3.468
 S          -0.09805434374248    1.32810948937400   -1.76791502007655
O          -1.45489716044396    1.29857224350759   -2.26530376442735
O           0.06029106569022    2.16774729323070   -0.58672070082548
O           0.48732410169281    0.01418132053102   -1.54931577286581
O           0.76126985889694    2.00008141753888   -2.92296916928880
H           0.08693658881391    2.48501757104619   -3.38564019283666
O          -0.56381024674618   -0.33558171710599    2.40600838645960
H          -1.33622311236088    0.17884582761406    2.64549374035793
O           1.04922483287309   -2.73041609717939    1.16548149543999
H           0.84901774396071   -2.43436216302426    2.05697866771117
H           0.24326051241887   -2.57337521183092    0.65239323485558
O           2.58002677801965   -0.87431603453091   -0.09724642633171
H           1.99856290621612   -0.66921083780395   -0.85165267207504
H           2.19824626344331   -1.68026330019923    0.30962644018786
O          -3.17541800999446    0.17873533205565   -0.60868523660603
H          -2.57875005135741    0.68567331388261   -1.20589799764904
H          -3.90867095597600   -0.10593931490818   -1.15698044039691
O          -1.10095272345953   -1.36553549792943    0.04796015205176
H          -0.50304259849188   -0.92483544177057   -0.59428711918873
H          -0.79702029451916   -0.77490951337654    1.54223376618524
H          -1.97889163256423   -0.97082435632800   -0.13691800024849
N           1.45389196491576    1.03501140764490    1.28490250817306
H           0.92468496576123    1.56270671704895    0.52265871878650
H           2.02792719354686    1.66660631500108    1.83125028063825
H           0.73378447247381    0.55384026180694    1.87496889315698
H           2.04128191095933    0.28444098569229    0.78957621879261
