    26
        -50.46402033  Gyration_radius:  2.52263927294 Dipole_moment: 1.280
 S          -1.40159705046537   -1.32751001925675   -0.13461464571524
O          -0.00634983711099   -1.66943610230190    0.11888811163588
O          -2.17832608447220   -1.12620288529568    1.06384557225734
O          -1.50371966947038   -0.24300751923539   -1.09780236293972
O          -2.03717108681781   -2.60669315982299   -0.83798822709758
H          -2.60372483012645   -2.93416925851158   -0.14727012027380
O           2.13211367500552    1.18379033108621    2.23893243958215
H           2.39694779030294    0.58796712687580    2.94138997744990
O           2.10332932325882   -2.18267314444150   -1.57283501912562
H           1.87599547556447   -2.69256726786957   -2.35085224547702
H           1.32665299478419   -2.21550455210202   -0.98871138389012
O           0.20976535996908    1.73422409424791   -1.77220752390109
H          -0.26985701755752    2.43156123558435   -1.31352597411108
H          -0.41029281438116    0.98080809873345   -1.78442052976332
O          -2.13222581582387    2.09638228445515   -0.00297854979450
H          -2.03616101740815    1.22405856970662   -0.44160908210748
H          -3.02327022106742    2.11987824654822    0.34856601546042
O          -0.47901956762598    0.82132587162032    1.77194016836069
H          -0.95828299609383    1.50884212739364    1.27879439577997
H          -1.04203891978805    0.03276210315454    1.70491656859054
H           1.15200712839365    1.15677172172553    2.21784617802915
N           1.80762902770131    0.23944711903661   -0.24900789223739
H           1.05614742895633   -0.45131680605733    0.00920653197762
H           1.34344547834128    0.95981748674915   -0.85827597000105
H           2.17237696760872    0.65877299086339    0.63405502144065
H           2.50562628832615   -0.28732868287855   -0.77628145412468
