    26
        -50.46402031  Gyration_radius:  2.52264540876 Dipole_moment: 1.275
 S           1.57313043564463    1.11552042060048    0.16292429104543
O           2.43683727415722    0.64397858264574   -0.89151199401888
O           0.28823057086004    1.61921014251457   -0.30954947952310
O           1.39094490226459    0.16734302444684    1.25023000728749
O           2.32314077747199    2.37180400464848    0.79080187552828
H           3.00891015602431    2.51726308150925    0.14744417381861
O          -2.03038856221708   -1.15070136666194   -2.34796159250260
H          -2.11591391530925   -0.62181874667330   -3.14266597976724
O          -0.68295246983216   -1.43076120041657    1.91893922004993
H          -0.27327170606858   -2.24568745514005    1.61106143083647
H           0.04485515817873   -0.78075019809513    1.92542923692978
O           1.75156128663295   -2.36468799380271    0.52584557883944
H           2.66083682998240   -2.56590106560702    0.30034627141634
H           1.74932640486853   -1.43646797311521    0.84366798359693
O          -1.88771631080383    2.65687006421869    1.01870641052614
H          -1.05540991563722    2.49752450705482    0.54182343909600
H          -1.66953780501582    3.22720742668355    1.75640393554054
O           0.53644468969225   -1.11271451229897   -1.58752227881746
H           0.83973320826043   -1.78994931090076   -0.95916924298546
H          -1.06729385272880   -1.26397492120255   -2.20196399541871
H           1.20806292717330   -0.41289904402780   -1.53840946170720
N          -1.83852791934255    0.06115303483599    0.03580643426721
H          -2.16493465292784   -0.41551990540354   -0.83303495296686
H          -1.56750604216238   -0.63035704190109    0.78011181175565
H          -0.96148444565149    0.59399836150680   -0.19976713473293
H          -2.49707704352206    0.75031806458203    0.40201403191065
