    26
        -50.46282810  Gyration_radius:  2.50896009519 Dipole_moment: 5.037
 S           0.76362992317986   -1.86965868717486   -0.64617030268723
O           1.13092654636150   -1.38807833565149   -1.95723557797202
O           1.05383684225057   -0.93570283103768    0.42862924822907
O          -0.62870773661716   -2.31367443323871   -0.58648726428978
O           1.65908900295970   -3.14864486092435   -0.37935977857551
H           1.73233578946697   -3.49275022291000   -1.26279270323268
O          -0.93285451854790    1.90492725687200   -0.78780618011499
H          -1.28452500360596    2.66153909674947   -1.25807643069838
O          -2.03425274085816   -0.06173186412518    2.55781841241904
H          -1.24386454987157    0.52612924941071    2.42603020701266
H          -1.70961974375020   -0.83722288296964    3.01884321744412
O           0.09798717149849    1.22474157352699    1.72171484232842
H          -0.22616916563848    1.71515399067131    0.95150453604727
H           0.50112693044855    0.41776607600365    1.34871161977500
O           2.85366137006524    1.05236933100358    0.19926819004740
H           2.59429938035657    1.57907206373091    0.95967288690591
H           2.37452037912509    0.20713928938422    0.29196201898035
O           1.23549530204606    1.25835798876837   -1.97121154235501
H           1.95394867678188    1.37361949141892   -1.31771134474298
H           1.20198242794555    0.28920106721560   -2.11532968188397
H          -0.07604501974828    1.65261337934660   -1.27571750733559
N          -2.22478944099231   -0.35859060873708   -0.07948133419515
H          -1.78854671821715    0.52255225005626   -0.43754911236677
H          -3.14109905424548   -0.50350464444705   -0.48938476180574
H          -1.57724078158222   -1.18657721400854   -0.31425515696055
H          -2.28512525877142   -0.28904551848440    0.97441349005750
