    26
        -50.46928681  Gyration_radius:  2.50216385923 Dipole_moment: 3.651
 S           0.01975794054045    1.80753509421854    1.09268661004338
O           0.21805236392606    2.29526495594207   -0.25814118014261
O          -1.36828402966826    1.50474732480721    1.38189648376257
O           0.90918329575164    0.70571477504519    1.43783906673144
O           0.44226518731719    2.99263629362942    2.05490469250662
H          -0.08457034404373    3.70850906570460    1.71675879315093
O           1.71187906852791   -1.09853925746559   -1.71229335390590
H           2.26983648782613   -0.33859156339223   -1.42798243519737
O          -1.64152726208808   -2.64612378112211    0.15335828543377
H          -2.11106911590347   -1.78265026459920    0.18005250146339
H          -1.71498172770256   -2.95619189032100   -0.75176571200748
O          -2.72075935106562   -0.20908801313766    0.01169237617059
H          -2.20406894587572    0.43654484740537    0.56517869611803
H          -3.64377742436348   -0.01297599816189    0.18011521399001
O           2.68221378758273    1.10484930384462   -0.53869317532161
H           2.22486194686980    0.95727940121537    0.30821091461266
H           2.16709028212357    1.81090120306278   -0.94523326367445
O          -0.60158259986588    0.25410067888696   -1.78546210288752
H          -1.45168750888722    0.03594934742172   -1.38424455193555
H          -0.30956172412751    1.06999444228081   -1.33579001170611
H           0.86676278311034   -0.68149329601914   -1.98116413441145
N           0.87062752556951   -1.81535506458296    0.62727734597471
H           1.28481995787618   -1.64323682806425   -0.36467436021325
H           1.46223284611131   -2.42474776394261    1.18061836930218
H           0.81796854071291   -0.86479795198366    1.06724124062708
H          -0.09568199025186   -2.21023503067839    0.52761368151864
