    26
        -50.45446548  Gyration_radius:  2.59494454158 Dipole_moment: 6.569
 S           0.09486256271192   -0.15578911909523    2.47902713607397
O          -0.41624791292930   -1.37801480820466    3.02506913911073
O           1.46331545244926   -0.24196272142025    1.95108351080972
O          -0.77746721599507    0.49439246495163    1.50550244081001
O           0.19385671589368    0.87185427288134    3.70166140176489
H          -0.07972525187145    0.36403814136141    4.46024867821503
O           1.07972176071174    0.10769856927346   -2.38110791130531
H           1.84764269772933   -0.30141022323090   -2.78076017079094
O           0.58476781830768   -2.48187644676271    0.72637454165734
H           1.17847940750060   -1.80104546028464    1.07564847073489
H          -0.04965160880007   -2.60977099864290    1.44198097613266
O          -0.99361640229051    1.96197376710697   -2.21637339843254
H          -0.29576529640676    1.35563592073695   -2.50785706763715
H          -1.54540038992097    2.13278156932966   -2.98104398087317
O          -2.29828223366872   -0.01154780187309   -0.68457551892586
H          -1.95625677987314    0.08727855577755    0.21824755144557
H          -2.01403346805842    0.78861946491684   -1.15479957328950
O          -0.49635337191415   -1.73384688558811   -1.63967255708235
H          -0.11287312561920   -2.13389043675860   -0.83296748664975
H          -1.28767868725802   -1.23285571342879   -1.33239935328557
H           0.45161249395150   -0.66654353594065   -2.12945934228569
N           1.11069121070372    1.34837785221356   -0.01657444842567
H           1.59083286201382    0.76473687576545    0.72753590558931
H           0.12889195346478    1.26580753019983    0.35272753582915
H           1.42160138234600    2.31312484800490   -0.04222320851664
H           1.17707541681847    0.89223432871581   -0.96529327067003
