    26
        -50.46928683  Gyration_radius:  2.50221857323 Dipole_moment: 3.652
 S          -0.66029028062498   -0.45336610491211   -1.95469470200314
O          -0.03282463810275   -1.70388795287546   -1.57478754803363
O          -1.99425430578588   -0.30534994938115   -1.40628692613701
O           0.17820304997550    0.70903153923574   -1.69005264586320
O          -0.81330250866354   -0.49858876476666   -3.53058026849261
H          -1.26929233760714   -1.32408248270329   -3.65310239536432
O           2.37544202638135   -0.13993067207058    1.18682041406147
H           2.66677979083817   -0.35030019628619    0.27005055223354
O           2.49536274718832   -0.62525785335069   -1.44456359162913
H           1.77394871317725   -0.01331817339397   -1.67559444232401
H           2.08121815116695   -1.49195923692714   -1.52446937335478
O          -2.45712948212090   -0.36497955611709    1.12857832577856
H          -2.29036561775182   -0.31480171190846    0.14882480855836
H          -3.39209850549953   -0.55398002724180    1.22213734819259
O          -1.17670751292183    1.59942839557529    2.40346211474573
H          -0.85383396772538    1.15711008124748    3.19147236362019
H          -1.73907294963439    0.94101457070017    1.93747879696852
O           0.09774666928270   -1.55069918693642    1.09537771846242
H           0.07483681785264   -1.73243017219149    0.13639248573867
H           1.64680776186187   -0.77404927186607    1.35265392185649
H          -0.80018283540956   -1.27929244807216    1.32189074707569
N           0.81612222103889    1.84446063103896    0.61617000429318
H           0.46306702591341    1.49874602743198   -0.30886395431249
H           0.02897630024334    1.85994338967488    1.30884238352195
H           1.54872172853812    1.10371246335422    0.93201104043800
H           1.23212194839103    2.76282668274044    0.51083283196847
