    26
        -50.45446516  Gyration_radius:  2.5947622429 Dipole_moment: 6.563
 S          -1.10659842449053   -2.10435391119654   -0.72365717817877
O           0.31502343175982   -2.38323334096217   -0.48046196201766
O          -2.00353670470152   -2.66705920686445    0.24204379750753
O          -1.30027822388723   -0.68063467900122   -0.98399345685379
O          -1.43308199958905   -2.83068496844572   -2.11143732387351
H          -2.11838690627752   -3.45639720931668   -1.89477156752996
O           2.07148641569482    1.42923157403985    0.71588391444607
H           2.85984133230422    1.24738012189922    1.22792563034566
O          -1.67614201920703    1.68855672825247    0.28450676361313
H          -1.08026653161577    2.17934797331278   -0.30390729734781
H          -1.78607981602800    0.81848745224083   -0.13119875516480
O           0.49252114237409    2.90091878465909   -1.04587509478516
H           0.39937224048346    3.84734267674248   -0.92790813779114
H           1.13771777925842    2.60165699865950   -0.38726654086352
O          -0.22818729127313   -1.65258039192624    2.06185474626769
H          -1.13588488090099   -1.95525820874424    1.93700228945917
H           0.23478442063814   -2.01883564800239    1.29416809724585
O           0.05877163185012    1.03468341701636    2.20487215030454
H           1.28308418397710    1.29532168393451    1.36249173960469
H          -0.69204588250126    1.33270604727123    1.64004237225301
H          -0.04948885025318    0.06579776993720    2.29158055801230
N           1.19122979573970   -0.11838813308757   -1.27441191691120
H           1.61931983510392    0.47625338372146   -0.51571183322779
H           0.15178666096834    0.04222867542285   -1.31255625578556
H           1.62956976630629    0.04863200169992   -2.17328983130531
H           1.16546891426771   -1.14111961126366   -0.99592491742486
