    26
        -50.46215077  Gyration_radius:  2.51045224652 Dipole_moment: 3.330
 S           0.41421739936045   -1.59917153104526    1.37003347780092
O          -0.96492706003174   -1.85623042030505    0.99691130833967
O           1.24781167894596   -1.31917340772148    0.20458258091265
O           0.55847864069485   -0.59596107904502    2.40275528424391
O           0.96832827704072   -2.94730999946901    1.99191933531997
H           0.78052490902774   -3.61311580571778    1.33638006684543
O           0.34510097201605    1.77857406079746   -2.49771705296440
H          -0.22127719626008    2.01217807538049   -3.23365049253404
O          -2.36444859273959   -1.20778107739288   -1.25934511114946
H          -2.70568442862420   -0.37383577511191   -0.92494738806539
H          -1.98078908827778   -1.65182465203993   -0.48534535319312
O          -0.01030019722824    2.52138304741273    0.00665633538860
H           0.07710646394093    2.35910115944536   -0.96418272549220
H          -0.74401263240157    1.95050014757631    0.31240311766317
O          -1.72245499595665    0.69837363289245    1.06930287230024
H          -1.79153720907746    0.93162561037557    1.99711693723655
H          -1.44956751628048   -0.24077759798378    1.06363729826455
O           0.14927635553442   -0.82959364796295   -2.23854207494706
H           0.60801465770847   -1.09269254635048   -1.42320554042573
H          -0.79634878269756   -1.01261002446019   -2.07159443278989
H           0.33186107632361    0.78617563579738   -2.44710885534771
N           1.89512869892935    1.08860295152073    0.96237623510351
H           1.94856777301922    0.26940324526782    0.32528321890921
H           2.80003506358269    1.50822405171684    1.14306080280846
H           1.16027733600925    1.79853747567820    0.55560539090273
H           1.46661841743609    0.63739850078062    1.80761477486196
