    26
        -50.46401981  Gyration_radius:  2.52142158955 Dipole_moment: 1.224
 S           1.88685823816299   -0.24263565509508   -0.34647652255773
O           2.17115621175209    0.71794687802384   -1.38403568325605
O           1.58007085790059    0.35315065480164    0.94435704655350
O           0.87995881867040   -1.23080001231549   -0.71585570931159
O           3.23892039981836   -1.05998641571781   -0.14866022914918
H           3.75223524662030   -0.74918073683586   -0.88715553400312
O          -2.83987930330904    0.33139802237060   -1.67734072573907
H          -2.87834440063678   -0.06324462497857   -2.54990194249823
O          -0.75098287171929    0.67052150316436    2.27116570416709
H           0.16492463279676    0.45199769806452    2.01451826299880
H          -0.82945419040936    1.61422080179187    2.09836483745000
O          -0.20706770360122   -3.33446962556697    0.68572912181607
H           0.32129312704491   -2.74097927427655    0.12526786971141
H           0.41554674587769   -3.79925966729274    1.24547474925780
O           0.61340755120819    2.82260587803255    0.76316260102609
H           1.09284928860917    1.97225573419923    0.86083991934130
H           1.25712750009725    3.45418673737069    0.43934701239297
O          -0.41534645342288    1.42189923357542   -1.35422872088034
H          -0.29411828126434    2.07615954217518   -0.64504424564184
H           0.48381214853834    1.12827572993931   -1.57401060289936
H          -2.02024836145591    0.86938929928924   -1.66054288834130
N          -1.55791559098149   -0.93894754024794    0.30522373158353
H          -1.73297510112917   -1.89905640157297    0.60572215786754
H          -0.62430518052327   -0.95248978922382   -0.18126119188561
H          -2.26353141792985   -0.57053020548313   -0.36910660672734
H          -1.44399190071327   -0.30242776417658    1.13444757870152
