    26
        -50.46401958  Gyration_radius:  2.52193190112 Dipole_moment: 1.216
 S          -0.19975366080202   -1.87985456451055    0.40924842932474
O          -1.41133472491368   -1.09296290962915    0.57714263710001
O          -0.09156439395323   -2.52436147054994   -0.87645168806180
O           0.97862628893568   -1.10670759548942    0.78389091125003
O          -0.28940014448827   -3.06619395244123    1.46751600596637
H          -0.10427175668764   -3.81913526763478    0.91597540041320
O           1.94296941522219    1.98495429891856   -1.80626441220517
H           2.83473854779682    1.68030476342760   -1.98091824074174
O          -2.43544455045606   -0.22361371121534   -1.71624891939191
H          -2.77967976964851   -0.92966905671897   -2.26493425977587
H          -2.15508929030711   -0.64493408166012   -0.87569589890022
O          -1.83861532811940    1.57418435719759    0.55747924086822
H          -2.24546261541035    1.59672584524973   -0.31464925506430
H          -1.81001975653923    0.62613059222705    0.78754058288634
O           1.54587025103581    0.39853650025215    3.01677692649568
H           1.43655210676432   -0.29423295803023    2.34328312742428
H           1.22052259450136    0.02789999050191    3.83766443345395
O           0.28864369667069   -0.11300414736915   -1.98488258408942
H           1.35141445263025    1.24282433112749   -2.05321690876250
H           0.33993572576645   -1.03220881626725   -1.67597597406123
H          -0.66262100445711    0.05826627158602   -2.09168734886903
N           0.82652443284723    1.54052421093204    0.59022222997801
H           0.89738806480142    0.49155098396210    0.53313141030614
H           1.23105063588111    1.80187320235123    1.49062122627538
H           1.32971001025184    1.93935224502788   -0.23203854214419
H          -0.20068921727600    1.76375090879331    0.56247145035306
