    26
        -50.46282820  Gyration_radius:  2.50894170447 Dipole_moment: 5.050
 S          -0.67148598015195   -1.73908689512121   -1.01078569627008
O          -0.11595961743062   -1.34249164650697   -2.28351903073682
O           0.29892164425448   -2.44775909759478   -0.17684978192200
O          -1.29027008977433   -0.65146271656486   -0.27192357690413
O          -1.82853377095926   -2.77068325916872   -1.33643143545823
H          -1.46740250048292   -3.19560486360182   -2.10677145874598
O           1.62317670030160    1.57437294433983   -0.07067387204917
H           2.34234458610949    2.18421644868740   -0.23840211132515
O          -0.76117077485624    1.40795889523132    1.38144074009247
H           0.04188016885097    1.73214076344905    0.94687203909026
H          -1.05683807719579    0.66051849376405    0.82763008879368
O          -2.14184353493961    1.61876013781071   -1.44101749259142
H          -2.23914825981006    2.16435592033898   -0.65621495111091
H          -2.00577485181667    0.71024423179189   -1.11168231890957
O           0.16782472543715   -0.17555140749864    3.26025370442749
H          -0.25112222081793    0.53981614798373    2.71230490824146
H          -0.52878445388101   -0.80906786697727    3.44071677970629
O           0.40973397710945    1.25324365275108   -2.29438071306010
H          -0.50224174040061    1.58188312088414   -2.16461163744478
H           1.15584906617744    1.44845758127340   -0.96601100722867
H           0.29661929528917    0.28709457848207   -2.41641196809380
N           1.72839161749334   -0.80748233937835    1.19929365471077
H           1.15605649065602   -1.51009236294637    0.61729428754599
H           1.78573659255264    0.09641460863741    0.67536111628585
H           1.20039298895529   -0.63137282317273    2.09887304148746
H           2.65364799942578   -1.17882222696681    1.38564668127530
