    26
        -50.46282806  Gyration_radius:  2.50889182403 Dipole_moment: 5.053
 S           0.56268136066329   -1.54861613977112   -1.33523915062766
O          -0.34745068180007   -2.38474484034239   -0.55310060068140
O          -0.08719519177259   -0.94767909000854   -2.47637895313858
O           1.25323567021649   -0.59770817790290   -0.48044543925428
O           1.67594381979516   -2.51284336145268   -1.91823656036695
H           1.24886386099375   -2.80533863638748   -2.71597629491750
O          -1.60268301060467    1.56368477399881    0.32259564955434
H          -2.32484256169199    2.19266830733818    0.31687030311525
O           2.03908511470560    1.83411167292561   -1.32664923728909
H           1.91785407278416    0.88358565286775   -1.14161789452456
H           2.20557068507063    2.24238645490059   -0.47304316660783
O           0.09694588602200   -0.70940188402181    3.18985627532057
H           0.47879658125894    0.08670962090259    2.73391935299396
H           0.79808826545508   -1.36303903760804    3.20654602215056
O           0.88969884065545    1.16212247736973    1.52568854273488
H           1.12864681741930    0.51568765274211    0.83440596034463
H           0.05808292766247    1.55304341690698    1.21842080737869
O          -0.57795482963332    1.61386582816362   -2.01579336493166
H          -1.21129608685688    1.58699430571653   -0.61661074055909
H           0.34588456825626    1.91682407783930   -1.90914603310168
H          -0.48797454465464    0.68124547160053   -2.30431009609489
N          -1.63504106048577   -0.99457034653945    1.18940683906097
H          -1.03251347394644   -0.96885071915076    2.05843210215358
H          -2.54667150988164   -1.39181734294346    1.38909740294897
H          -1.72325838225215   -0.01678935788819    0.82745660128576
H          -1.12249716734519   -1.59153078926814    0.45385166305323
