    26
        -50.47071283  Gyration_radius:  2.4159246194 Dipole_moment: 4.170
 S          -0.74848646059083   -1.88136845636101    0.11102629857198
O          -1.75625271704712   -1.13326451693725   -0.62236608951649
O           0.49418663826143   -2.00006609986324   -0.65448196354654
O          -0.51287064429649   -1.39906274188545    1.45041560230125
O          -1.31797358274740   -3.35111303023427    0.26032434365591
H          -1.63918018268770   -3.53557209612775   -0.61565835499748
O           0.49407357213621    1.93098699277708   -1.55608718904098
H           0.75910255235657    2.53011494011053   -2.25479715492112
O          -1.96392037736856    1.51217293391595   -0.11701417584851
H          -2.03804329361618    0.55514453672357   -0.29570933088643
H          -1.25429309020524    1.83417922080229   -0.68870598936431
O           2.19015174313794   -1.12007613780770    1.11674914937330
H           1.66210046978317   -1.38334259065279    1.87888213876922
H           1.69444375425347   -1.51507439425180    0.36216517107201
O          -0.74749797666845    1.14617601186590    2.19975711283532
H          -0.76682287872005    0.16961627671859    2.13852626507095
H          -1.36847172813045    1.43528581975572    1.48945334433856
O          -0.13752897497514   -0.36478712813783   -2.59504748105764
H           0.35452921138371   -1.02070140432821   -2.06237257922337
H          -1.03804561989326   -0.47809659706493   -2.25245021736375
H           0.29706152675979    1.05510318544261   -2.00190743578786
N           1.49292185658049    1.42335532600516    0.93656734759571
H           1.88356805730026    0.43359755762859    0.96852462222574
H           1.22352117781635    1.66487361430898   -0.03637105646011
H           0.58179469574005    1.40091128537884    1.53752993028298
H           2.16193226142898    2.09100749209126    1.30304768193729
