    26
        -50.46299619  Gyration_radius:  2.55166003951 Dipole_moment: 3.541
 S          -0.61384070373464    1.30350701197821   -1.37812637540527
O          -1.27239874745736    0.33467315451333   -2.24703399468846
O          -1.17392384037551    1.29679783006761   -0.04263398860683
O           0.83112012401517    1.16007336598849   -1.39239198048465
O          -0.91484948931849    2.73601139144580   -1.98135314573671
H          -1.82811759968346    2.86257831553815   -1.74572857418859
O           1.57005144579229   -1.24937201384041   -0.51416369832112
H           1.53437029195669   -0.36711333621085   -0.93341822996145
O           1.01807721605341    1.27340238514188    2.96867750726053
H           1.36824328059075    1.73583062738304    2.17659180874576
H           0.31925823023566    1.83860906722801    3.30247275509686
O          -1.68448590753831   -2.68133374946142    0.87434122935523
H          -1.22679360303732   -1.89214784281041    1.23882062140414
H          -1.37061148427756   -3.42888412628343    1.38580111019754
O           1.81082796216728    2.49072922459597    0.68851749764550
H           2.74612610514910    2.52744526726594    0.47955469228287
H           1.38278504918211    2.05144731372088   -0.07544370530522
O          -0.12716283642009   -0.59244232976754    1.44513184417235
H          -0.57753440437403    0.10175633578490    0.91005640008451
H           1.14954262582851   -1.10191048951791    0.36249671464730
H           0.31170512565765   -0.07752108139714    2.15809072398576
N          -0.66331675598615   -2.09434432159791   -1.55345632046459
H          -1.01455103206769   -1.14178639595478   -1.87983256415038
H          -1.21129075104716   -2.40822642142022   -0.72013384828828
H          -0.70395564194341   -2.77030439126819   -2.30774607105303
H           0.34072534067295   -1.90747479111011   -1.21909040820563
