    26
        -50.44806732  Gyration_radius:  2.62613240459 Dipole_moment: 6.897
 S          -1.36329329576605   -1.82546292374862    0.01455150916172
O          -1.77294617466275   -0.90986186653677    1.08699600541432
O          -2.12689757799355   -1.52501607663996   -1.20015370062470
O           0.05458462975504   -1.87529035710497   -0.17750904907680
O          -1.81999931256368   -3.27430418578172    0.46460621761311
H          -2.77223792261236   -3.24702534218165    0.44158850357206
O          -0.11463900015584    2.06663372268851   -0.85567930701603
H           0.19856312409920    2.82543104445680   -1.34898219142277
O           0.14303821013480    0.91792910937288    1.74103537873139
H          -0.45022789184638    0.15662154081154    1.62079199772744
H           0.13538153140685    1.40798473347105    0.90724601808406
O           2.72374343599834    0.23917211931912    2.02367587797058
H           3.08149585752774    0.97250888480999    2.52591376505891
H           1.75354021270172    0.39272501512102    1.97342095873368
O           3.46743041663652   -0.14133261733325   -0.53129719760637
H           3.23128954895400    0.01928634845627    0.40953688522610
H           3.65244949777448   -1.08069079890634   -0.58611625095847
O           1.08575238019220    0.01786229838045   -1.73259053263165
H           0.68705064672966   -0.74379066453245   -1.26417675524256
H           0.39383167494806    1.25771287088864   -1.23304827308603
H           2.01380760333608    0.04190193884609   -1.39795220631498
N          -2.47060991303558    0.90921747970791   -0.59184912345193
H          -3.34009657531594    1.41579785005630   -0.71544437629770
H          -2.35896422356634    0.48797085290171    0.36300360129838
H          -2.41418516725188   -0.00641420219613   -1.14863299587885
H          -1.61786172542782    1.50043322568313   -0.78893473900845
