    26
        -50.46047662  Gyration_radius:  2.51771972533 Dipole_moment: 5.318
 S           0.54170150377749   -2.12378675345152    0.20296571516271
O           0.31621752991419   -2.42528070857773   -1.18750055074652
O           1.89440591056350   -1.63678099846229    0.47657063994473
O          -0.44166827933047   -1.23311520781636    0.79847784744162
O           0.40006479291881   -3.50457238419756    0.97748146258057
H           0.65957665201007   -4.12064115365083    0.30067802642542
O           0.79094449764595    1.93030631499624   -0.85446191196567
H           1.20886129170441    2.56829912162917   -1.43385844844915
O          -1.66432452818010    1.11715615072077    0.28808789635446
H          -1.33992700679999    0.20285800235731    0.40121360639282
H          -0.90893839568903    1.60979129719900   -0.06221722449615
O          -2.56442726618643    0.54606305848755   -2.21563497834681
H          -3.05051685385803    1.27876633969891   -2.59511239575582
H          -2.44696985075386    0.74645583617416   -1.26445588959502
O          -0.45498788501909    0.47518335704946    2.83272452708932
H          -1.14055976812355    1.03720909732964    2.44955737917043
H          -0.54965989253076   -0.37059004890223    2.35142838607222
O           0.12023989076968   -0.04279848676307   -2.34525822403945
H           0.23704638106334   -0.94654027704410   -1.98645510934564
H          -0.84219455602057    0.06043688874036   -2.47075693318449
H           0.57343872473024    1.13266360146663   -1.44243098100054
N           1.75190206742431    0.76377438693722    1.37032723796906
H           1.87228622468889   -0.25574049171123    1.03123551842788
H           1.47968327856451    1.32099476275418    0.52915431292075
H           0.94948091707322    0.76140486063747    2.05901803926327
H           2.60832464964174    1.10848344439829    1.78922204170986
