    26
        -50.46330475  Gyration_radius:  2.53295585257 Dipole_moment: 3.795
 S          -2.07605955533804   -0.01235153398760   -0.66148209740798
O          -1.62885747888436    0.55755693847410    0.59714938014423
O          -2.70831746660326    0.90798429593212   -1.55651044991915
O          -1.01030382601409   -0.82013167146168   -1.26753778645094
O          -3.21127724140001   -1.08673297102170   -0.27140770456376
H          -3.98674391968058   -0.77430761384847   -0.72885153510956
O           2.47755629051934    1.28061642684133   -0.80067532740641
H           2.46404110205616    0.31963224933013   -0.87908675206531
O           2.16175815913324    1.95182961940820    1.72762070451219
H           1.69051671331175    2.78660898263589    1.71391667180743
H           2.43148757049733    1.77782543174035    0.78811595743458
O           1.50933963111624   -1.43175033748190   -0.63355701078589
H           1.53569525818481   -2.39007906613027   -0.59273165043552
H           0.63521653483082   -1.21044948435043   -1.01892401681628
O          -0.95818243920315   -2.41577950286477    0.93958711155458
H          -1.05481106123154   -1.92062059160573    0.11129107677911
H          -1.85656103823059   -2.60669368156153    1.21274803981504
O          -0.02658444386422    1.65244204760057   -1.83424548903871
H          -0.34499159903920    0.73963696916315   -1.80819808735937
H          -0.82716025371555    2.17860493244865   -1.90262823039893
H           1.66049680968069    1.57942132050448   -1.23592804359244
N           0.63563447395405   -0.21637553982325    1.64610525220601
H          -0.30820709334465    0.10244929701562    1.27204191900811
H           1.08074477876585   -0.76386023329783    0.87657370015099
H           1.22857394542200    0.63072020231430    1.85580469340381
H           0.48699612891036   -0.81619648602208    2.45080967456488
