    26
        -50.46422797  Gyration_radius:  2.57410330107 Dipole_moment: 3.112
 S          -1.57224529857142    0.06824496175011    1.69221883799466
O          -2.57026465294871    0.12030028001577    0.64192602234811
O          -1.36134043991434   -1.24828132655796    2.25013946818266
O          -0.32874598985315    0.70000263299143    1.24191189754138
O          -2.10174403320597    0.95222198201815    2.89969398367739
H          -2.10336570546233    0.30650249392002    3.59864375481035
O           1.94449798527244   -1.46493209462624   -0.61880633854651
H           2.45671959089081   -2.18127761861105   -0.99487898736946
O           2.38356347886976    0.92594936416143    0.90079409468806
H           1.48506844145091    0.91473194546068    1.26861862162175
H           2.50272714890603    0.04788979701043    0.51417078391263
O           1.99356094731167    2.62856209314648   -1.13070680198163
H           1.81050078790389    3.49716090301721   -0.77096072308057
H           2.30504944739120    2.08006821085430   -0.36969101663845
O          -2.04123696419725   -0.71650446652255   -1.74178747943065
H          -2.85559895277621   -0.97024734588272   -2.17803464897858
H          -2.31060620145833   -0.36211978941232   -0.85333300637626
O          -0.44473767341542   -2.31948885775156    0.00669601566877
H           1.10469935317447   -1.87205628710095   -0.27370468266947
H          -0.77407032540218   -2.03094608490540    0.88253103825918
H          -1.05485518612801   -1.95426855098957   -0.65022107086358
N           0.29777349302996    0.58468437366196   -1.30117420874014
H          -0.03485999731919    0.66764041946405   -0.29475323758663
H           0.78097006220987    1.47485077138695   -1.53953590808344
H           0.99804575698529   -0.18162542715890   -1.29892367705156
H          -0.50950509276272    0.33293762064739   -1.88083276132536
