    26
        -50.46330406  Gyration_radius:  2.53289258538 Dipole_moment: 3.769
 S           0.24052287823909    1.07498497532514   -1.88106733267450
O           0.04333773626933   -0.36070609607767   -1.78934960258949
O          -0.76625070473296    1.78421168764160   -2.60988934009119
O           0.54708110532307    1.63700339601169   -0.55952861753071
O           1.60212521150969    1.27176093248549   -2.71902422113055
H           1.33492117067304    1.79814832678627   -3.46716102566442
O          -1.97697568921244   -0.16235692798298    2.12174293161214
H          -1.11667300443906    0.18780838766912    2.38062743390884
O           2.73717882170073    0.02757803829945   -0.37868099214310
H           3.19420487181832    0.02147060000005   -1.22085890499396
H           2.02708091299637    0.67855451642360   -0.49088980952441
O          -1.68473254516716   -2.64132893562718    1.27896386241219
H          -2.35369109364346   -2.76130445208848    0.60278705022748
H          -1.89491506071237   -1.77530466874037    1.71683513384248
O           0.77719009972451    0.66871518378841    1.91721168947572
H           1.66484652977099    0.89982058629270    2.19900771785038
H           0.63366285545658    1.15679782749947    1.07891652877041
O          -2.12212349689329    1.23291480598720   -0.22541999935364
H          -2.45745966335609    1.32538020820075   -1.12060521479321
H          -2.22027087909738    0.33516274022477    1.32207709407064
H          -1.20700862446103    1.54062647254519   -0.28250219973406
N           0.60924558678282   -1.61330415333508    0.43310167617044
H           1.45836812542983   -2.16156158631048    0.34508811751982
H           0.76072196409903   -0.83643811619148    1.11392097654463
H           0.39783349106712   -1.14902472357311   -0.50076494451270
H          -0.22822062914780   -2.17960904522444    0.73546202237526
