    26
        -50.46047598  Gyration_radius:  2.51815397146 Dipole_moment: 5.336
 S          -0.59072068161707   -0.67743663963126   -2.00998681320876
O          -1.01481906708120   -1.91233447983794   -1.34853345872249
O          -1.64978613056967    0.29078189156171   -2.13760604609718
O           0.62481517113045   -0.17004110219280   -1.39393053984769
O          -0.18746905837651   -1.08255450610167   -3.49300486683354
H          -1.01317841392507   -0.95599498412396   -3.94816857198554
O          -0.71001259680854   -0.04263235343997    2.13726786498151
H          -1.26782485699052   -0.01066568836791    2.91524420623418
O          -0.24427523253056    3.39945520112300    0.42086428755919
H          -0.12467799066359    4.05260371369581    1.11101812532880
H           0.49886078363118    2.76656732467406    0.49754129906885
O           1.39344159125836    1.25368942123361    0.76581085531692
H           0.79828676681222    0.86656824119457    1.42320817028333
H           1.10975968194382    0.87334495856883   -0.08779050756603
O           2.63255076912269   -1.23600173307739   -0.01955971010219
H           2.82459442216541   -0.42474618303389    0.46804707783273
H           2.11735972338348   -0.92857347132474   -0.79160430448902
O          -1.96339265901388    1.25373243383282    0.31757134120107
H          -1.23518154141305    0.42935919096192    1.40843416541382
H          -1.50850642515207    2.11617409935291    0.27377033990328
H          -1.93259976596192    0.90028950207089   -0.59531436522507
N           0.29440290486007   -2.17524708276979    0.84195658363292
H           1.29288744771061   -1.91868283083672    0.60635825965978
H          -0.26257564407898   -2.13501593762190   -0.08388700042345
H           0.23008704157016   -3.09553893693408    1.26228442655416
H          -0.11202624940654   -1.43710001897564    1.46000919152797
