    26
        -50.46548017  Gyration_radius:  2.52080469128 Dipole_moment: 1.488
 S           0.55759709116361   -1.86058537867646    0.72267146670646
O           0.16533012701805   -1.75050655080638   -0.66407337944523
O           1.95402021619001   -1.49045993822013    0.92338604198606
O          -0.33462145038127   -1.15394564722282    1.62809494191309
O           0.42942909512915   -3.39325164773973    1.10885260879900
H           0.85194205063049   -3.81130833754758    0.36614189430900
O           1.89864574057614    1.34662682159224   -2.21314677480181
H           2.38192968774823    0.71541178619718   -2.74856222151169
O          -2.29398155052472    1.40769865850153   -0.31869611180637
H          -2.55612954236797    0.52048368134912    0.03113403130966
H          -3.09240357555474    1.82191364862924   -0.64810079296234
O          -2.80774934878414   -0.95925468828537    0.76800863142827
H          -1.87648679276564   -1.14847289944055    1.02497794374924
H          -3.31570991814500   -1.01242798617779    1.57986942439701
O          -0.22357455097240    1.51674980887902    1.50944749392797
H          -0.93392567048303    1.69588477132791    0.87196956508608
H          -0.31273071550186    0.56648139735268    1.72751481118152
O          -0.50294888426114    0.36555233419484   -2.16197431552216
H           0.94079016979309    1.06114095094403   -2.27245253963298
H          -0.31508870602559   -0.47803178564575   -1.70539107598640
H          -1.13848952468321    0.82692997744697   -1.59002956629668
N           2.12581470853115    1.05778086235199    0.41168996403836
H           2.10872582932980    1.21346801778379   -0.63612499261732
H           2.92160216148099    1.52170133153324    0.83610601069741
H           1.21650985142439    1.40712373178232    0.83696604381307
H           2.15150349151326    0.01329708994276    0.61172089727715
