    26
        -50.45445874  Gyration_radius:  2.5943497276 Dipole_moment: 6.539
 S           0.07969835598894   -0.67463643281240    2.39118437777902
O          -1.05995132716840   -1.42758173910441    2.82480542777603
O           0.68394640223928   -1.15450071948353    1.14918556913733
O          -0.11877834682477    0.77734396217437    2.32730275668120
O           1.20315084398239   -0.87901683149653    3.51187572926889
H           0.84958024429086   -1.55643859619050    4.08121146572605
O          -0.17462753290558    1.76364607191848   -1.92269042876948
H          -0.65442240346052    2.58497688566577   -2.03232792439161
O           1.77589175913995   -0.11861808057093   -2.56491997740158
H           1.88891562053627   -0.39612818270770   -3.47519721876449
H           1.11396183015146    0.58958937894221   -2.57109750787804
O           0.02574675331372   -1.96597031551709   -1.35452291577683
H           0.76097083351715   -1.49477609435566   -1.77842543103505
H           0.19983965254471   -1.90638747099858   -0.40152545177434
O          -2.42915648056346    0.15973845042750    1.06868265769489
H          -2.44325207755522   -0.67247256813674    1.55748952556360
H          -1.75205994991989    0.67544788138299    1.53014257289499
O          -1.86326569807704   -0.09218082809708   -1.56591748918673
H          -1.29907588852112   -0.90043997372864   -1.55862334872842
H          -2.20162642937059   -0.00303958616183   -0.65183794119951
H          -0.89222399982180    1.03420329389193   -1.81856559028427
N           1.28886604767059    1.16591359468403    0.22941440330583
H           0.73949572413772    1.48229195538633   -0.61358796191370
H           0.76285414802952    1.35964068078128    1.12778262186280
H           1.28256117593593    0.11371851655604    0.28876575436185
H           2.23296074259064    1.53567672768874    0.22139635510178
