    26
        -50.46361284  Gyration_radius:  2.492660817 Dipole_moment: 6.648
 S           0.39708946134365   -2.27925839069390    0.43363877310840
O           0.89082928484406   -2.53110117591257   -0.89935398569200
O           1.44288212622929   -1.78430645606599    1.33049967307538
O          -0.77673052265311   -1.42378786765117    0.48380131040810
O          -0.05602546515148   -3.68662664871365    1.00835262937565
H           0.59279815734410   -4.25908114870507    0.61315454612033
O           1.23665035158846    1.74507743114352   -0.85464021324680
H           1.91809269952887    2.21592581674499   -1.33571100476149
O          -1.93164657592988   -0.22075219309145   -1.64370230973769
H          -1.66573995810183   -0.80594235271825   -0.91153387066830
H          -1.99633363915470    0.66158260155813   -1.25184566479555
O          -1.41329130301183    2.29928110024759   -0.43618121490204
H          -1.69616211071439    3.08737058200732   -0.90123070543755
H          -0.46000624001095    2.18259799373791   -0.61869369559806
O          -1.43084947701811    0.74899764842407    1.88591209091568
H          -1.69266775612946    1.34814421691431    1.17058578652603
H          -1.40649149980781   -0.14223326000127    1.48142518602997
O           0.66581937429698   -0.27985336127079   -2.27471048352078
H           1.03943911013715    0.90920018723944   -1.41692975038388
H           0.86860706182215   -1.13886649073774   -1.84745841797156
H          -0.31787184842348   -0.25844643005048   -2.29432815891813
N           1.17974301994293    0.74665055312788    1.67119760386308
H           1.34499669465312   -0.31382442206316    1.56833816082910
H           1.34793612708991    1.18845216218993    0.74516337823810
H           0.14209320783682    0.85247733064752    1.90385831399756
H           1.77683974937592    1.13832256360937    2.39039202313161
