    26
        -50.46361280  Gyration_radius:  2.49271178141 Dipole_moment: 6.649
 S           0.43080262266747   -1.87615137371383    1.35488647588436
O           1.77711126957418   -1.80676443891578    0.78417341709104
O           0.31409394430214   -1.12076475315243    2.57956607317838
O          -0.57343326237593   -1.55236019241702    0.35545926189235
O           0.18955829051188   -3.39362636092633    1.74907505507734
H           0.58858944264705   -3.42045857511395    2.61216905979396
O           0.85264126225750    2.13341932849705   -0.16393834605548
H           1.29453491290579    2.94824774897177    0.07746493701347
O          -0.48055187301528   -0.95235436874791   -2.24195350696888
H          -0.98652169777462   -0.12586472531978   -2.25031802823106
H          -0.66938683132111   -1.36313026490446   -1.37355133121845
O          -1.35405756405117    1.64615187641404   -1.71242958533045
H          -0.56951424057291    1.90305012980344   -1.18882287906633
H          -1.76579738431822    2.45416530343199   -2.02056028802538
O          -2.44803661053722    0.38156364116379    0.58597316080259
H          -1.93063742972046   -0.44392129699325    0.57501306276640
H          -2.30156311754350    0.78358080234020   -0.28187471484668
O          -0.35341824937188    1.35788640539723    1.93049601250328
H           0.39956550617823    1.80787358399890    0.69775632030515
H          -1.25410400345676    1.14712297662239    1.59456222944422
H          -0.03309009489178    0.50079619747451    2.28309628501296
N           1.80166526536681   -0.18789360291969   -1.20827958252742
H           2.66162588927879   -0.19440589792937   -1.74456202103307
H           1.59127324363162    0.75554911345704   -0.82525785854933
H           0.96073938411968   -0.50431095128198   -1.78683338825023
H           1.85791134551563   -0.87740031523751   -0.38130983066386
