    26
        -50.45446530  Gyration_radius:  2.59519808587 Dipole_moment: 6.562
 S          -1.92823513165681    1.56837676145039   -0.07452474840540
O          -0.58843813555392    1.53007896842691   -0.65403684872077
O          -2.98137661282718    1.18248352213471   -0.96638160366905
O          -1.93561010660889    0.87985801507967    1.22303682817805
O          -2.18560673211107    3.10765372615771    0.27938353639760
H          -2.98989095447041    3.32535106329157   -0.18310229831562
O           1.53822591184295   -1.76553786179375    1.16998994155783
H           1.38095572936367   -2.47790306730117    1.79014949879106
O           1.05486402313554   -0.02603205366210   -2.15234370474775
H           1.83962683434818    0.15877195001667   -1.61182433527150
H           0.37717828207406    0.59429396377966   -1.83979740191603
O           3.11365852634475    0.05702711469780   -0.22950938705709
H           2.76634129460947   -0.70518664962772    0.25837158869610
H           3.91479302876772   -0.23786922097695   -0.66489456052887
O          -2.26133326106317   -1.36064523783779   -0.24722890233173
H          -2.70787974132487   -0.83708249789769   -0.92356862991300
H          -2.22597006496440   -0.75925643234402    0.51117131104773
O           0.20426676617335   -2.24259077174518   -0.93183696282217
H           0.49564604804122   -1.52543730765149   -1.54199471445663
H           1.01270040276749   -2.01420345110820    0.32187167900889
H          -0.73292178083981   -2.04659133641918   -0.72895763174622
N           0.60213154705601    0.71699240543030    1.47383151005288
H           0.51682271325189    1.10332925701768    0.49821955373859
H          -0.42922319915962    0.72234760544926    1.71786676383132
H           0.98454174885754   -0.26540796935077    1.43957447346831
H           1.16473285395071    1.31717950478645    2.06653503514073
