    26
        -50.46422808  Gyration_radius:  2.57429240392 Dipole_moment: 3.102
 S          -2.29062285760686   -0.31622955989546    0.01167236755361
O          -1.25863746060205    0.65403616312996   -0.36606393422722
O          -2.36654123287339   -1.43340520943787   -0.90224224535097
O          -2.14297750876580   -0.68861481926567    1.40451131184736
O          -3.67929017404180    0.43805641273335   -0.13667821619188
H          -4.08431585155488   -0.07920985186369   -0.82513485251758
O           1.93561804980950   -0.77956531876225   -1.39546067640016
H           2.65946758283659   -1.31212836703493   -1.72622139418820
O           0.69381689831573    1.74245157553014   -1.95531712185872
H           1.19961563393035    0.92467654999275   -2.05584262039949
H          -0.15452200911821    1.46360494661466   -1.57419045900690
O           1.71217718123415    3.03299416765736    0.16052502076206
H           1.19576607163035    3.82438428081077    0.31695216533118
H           1.42128107497175    2.68840694501732   -0.71899113599974
O           0.12269717761802   -1.50583947253070    2.33379008692289
H          -0.02741702775298   -2.05220492651618    3.10634140756559
H          -0.77457871290891   -1.18635107335632    2.05099767522526
O           0.07742673662644   -2.32743303041286   -0.40492799110792
H           0.12557594727134   -2.24516782830409    0.55840970125027
H          -0.83834916360671   -2.09088258382243   -0.65845127573616
H           1.20509282883855   -1.41339892153537   -1.16152573114423
N           1.07550155653202    0.53460343980034    0.82118223623647
H           0.09170917822669    0.58906585795825    0.42133294520155
H           1.64146058441100    0.04987230346879    0.09852780250099
H           1.42356972498266    1.51043043910803    0.91557932582113
H           1.03647579161314   -0.02215213909024    1.68122559792837
