    26
        -50.46422776  Gyration_radius:  2.57417333276 Dipole_moment: 3.101
 S           0.94138840486854   -2.11057866366846    0.08877210032969
O          -0.26694564747821   -2.89655647598569   -0.01736186564747
O           0.89887372477010   -0.89692481138432   -0.73296276130344
O           1.32919801041815   -1.78383596290009    1.44634293520445
O           2.08606878354686   -3.02039498463187   -0.52848798206777
H           1.57267711134404   -3.76127017199570   -0.83362511183898
O          -2.23903081282577    0.96693045959360   -0.59244599149041
H          -3.14257300893354    1.27505606781276   -0.51758134284480
O           1.31134632616416    2.83260869838906   -1.55191939038217
H           0.76247179233395    2.20265869552626   -2.07986666314452
H           2.19883589791326    2.76866185768446   -1.90626286679977
O           0.11566032158961    0.06492970957937    2.77891672680839
H           0.21978478791541   -0.09697112740371    3.71743506842652
H           0.63813633234230   -0.64643528067007    2.32294091862539
O          -0.16575543202630    0.84102293128731   -2.56819634565891
H          -1.03686843848774    0.89657707387996   -2.15258108014105
H           0.26855489680304    0.08911141009800   -2.13368335895310
O          -1.85385309925297   -1.04912314583472    1.02525985572391
H          -1.32036206535038   -0.72189142658056    1.76360839944826
H          -2.18628531964891    0.12302431555189   -0.06790726411489
H          -1.36136690282385   -1.80184062687962    0.63820979139810
N           0.25404214578975    1.37355373897651    0.40727633227211
H          -0.74138502872021    1.46213588965039    0.12641558964996
H           0.79991865154206    2.12187719739011   -0.06624900637015
H           0.33693231258230    1.32317886704524    1.42801787938911
H           0.58053626570178    0.44449576553361    0.00593542345977
