    26
        -50.46794268  Gyration_radius:  2.46411482383 Dipole_moment: 2.581
 S          -0.06981648825956   -1.12470199029702    1.45966106884565
O          -1.48549287059952   -0.96258662972116    1.69889645521945
O           0.25320798742649   -1.56036079155432    0.10944903581064
O           0.69251397171034    0.06143162922136    1.82643826185381
O           0.41470031116750   -2.29780582164577    2.40616659206480
H          -0.07468716285974   -2.13545953358950    3.20603935013912
O           2.09017198849366    2.02055478697612    0.63120094460795
H           1.77627961142374    1.30021729364919    1.21042359159347
O          -2.33409561396843   -0.84463506729282   -0.83535057536139
H          -1.74606450280780   -1.49917604733916   -1.21936381085088
H          -2.16896543056464   -0.89553956090842    0.12583981135948
O          -1.46044334381689    1.63258608894620   -1.40965906935209
H          -1.44681133456339    1.94885584057816   -0.48350491530657
H          -1.96335928847984    0.79141178153906   -1.36566592030707
O           1.71963542151336   -1.92945760488226   -2.24835285728569
H           1.24645985981776   -2.04474249205379   -1.41180446550671
H           2.15086283568919   -2.76438405208544   -2.43355621449300
O          -1.21262487414775    1.85030939193009    1.28009314065933
H          -0.49775006927252    1.23961838156586    1.54290739169220
H           1.55954151085799    2.78587687240380    0.86657639874862
H          -2.01463745152006    1.42451542242848    1.59375931022613
N           0.93173130510025    0.61220464542175   -1.33466068158035
H          -0.00427647106724    1.09887843023387   -1.53921065898932
H           1.40146243313106    0.26968541158422   -2.17065496367731
H           1.53630581198272    1.24322580883482   -0.76041349684957
H           0.70615186358944   -0.22052219395846   -0.74525370326005
