    26
        -50.46397198  Gyration_radius:  2.5384583795 Dipole_moment: 2.307
 S           1.40210967464814   -0.63388268697207   -1.40859084102224
O           1.07118015496388   -0.80134502196083   -2.79894083906136
O           1.20074392937809    0.71607602871702   -0.91124851487855
O           0.81324076471141   -1.62141025481898   -0.51537017154021
O           2.98512960643965   -0.90283316045238   -1.31841608335057
H           3.27621797910863   -0.81366304453578   -2.22100566960580
O          -2.70282541553196    0.50077067318085    0.06683849702885
H          -2.40360794111191   -0.26837376742032    0.56751121967084
O           2.38106110282326   -0.77334945299364    1.52474868007697
H           3.26627584079128   -0.72074243259095    1.16139237989121
H           1.85192662212182   -1.18499735700089    0.82113296458922
O          -1.07981815992509   -1.47300913478534    1.28463149472170
H          -0.46358777270887   -1.60658903316048    0.52605242832949
H          -0.96581211912431   -2.23653228144944    1.85290549731369
O          -1.72841935264155    2.68725150980679    1.18747085025303
H          -2.24662612959953    1.93688674537488    0.79757585737782
H          -1.58408361455650    3.30276477013798    0.46669229771809
O          -1.44967561494065   -0.09338806282711   -2.29031450456240
H          -2.29074078751801    0.40193736499569   -0.81056795249726
H          -0.50908288848707   -0.25392548147732   -2.48603551707548
H          -1.94109807881166   -0.70010580436738   -2.84851559775760
N           0.22543314091431    0.92454110259023    1.49973139587693
H          -0.43716129778788    1.74082725652400    1.54524503418729
H          -0.30826895641427    0.04124408960340    1.62218215447064
H           0.64310047141806    0.88275842032668    0.52030241347751
H           0.99438885180832    0.94908898550399    2.16459251636492
