    26
        -50.45505367  Gyration_radius:  2.43374914599 Dipole_moment: 3.298
 S           1.47143051710062    0.69891094260266    1.15033952183024
O           1.64135626064783    1.18836785784142   -0.21958791060013
O           0.09763823236114    0.20211360153130    1.32574933446179
O           2.46192609283063   -0.24931289958144    1.55449948205593
O           1.60227989268476    1.96640075283272    2.07810130581433
H           0.94095425495688    2.57897642044827    1.74023001162061
O          -0.11855208755338   -1.90766215819783   -1.73480026697774
H           0.20834486130305   -2.45110958256913   -2.45308207946776
O          -2.03321618008640    1.49191710811213   -1.15668414169382
H          -2.28245110412799    0.64057412415299   -0.71450584140593
H          -1.74584926393764    2.08288789692335   -0.43339881393666
O          -0.99597689675167    2.51390642740961    1.14519328982725
H          -0.66053653822471    1.58657671869078    1.25225335836411
H          -1.61962090481596    2.66212485027883    1.85897265515514
O          -2.04527157397462   -0.85054857895417    0.05984278701240
H          -1.66464576981535   -1.45311360666495   -0.59009343397246
H          -1.30506922284314   -0.59441565009059    0.63991806687395
O           0.12012475764445    0.63518721622121   -2.08379850010981
H           0.80284725960592    0.90203679193139   -1.32468278484569
H           0.01769629316033   -0.37187767221145   -2.00605287813226
H          -0.81313266609170    1.06184775649788   -1.78135481350798
N           1.23944608981233   -2.50352120252443    0.40023183492336
H           0.58958653991245   -2.79706210720289    1.12061526197149
H           0.43946142472193   -2.14045205739407   -0.90873137360752
H           1.70543168716812   -1.66704601276300    0.76285906518891
H           1.94579805430133   -3.22570695732298    0.31796685316107
