    26
        -50.47191004  Gyration_radius:  2.46907509294 Dipole_moment: 1.469
 S          -0.56658817336748   -1.46227568845949    1.22637995786083
O          -1.53378014601906   -0.42122986997267    0.93373038617456
O          -0.89055877435205   -2.75492784517181    0.67528439590339
O           0.79085565735246   -1.02733530968352    0.91873801002534
O          -0.61958138595459   -1.65455887516602    2.81107526760181
H          -0.59564461757380   -2.60057302957006    2.91195791230172
O           0.13356219488721    0.25467416563083   -2.68264870817985
H          -0.14339473644973   -0.66844268079715   -2.51941468595353
O           0.40894696464044    1.08592900577598    2.48606307246546
H          -0.48671412321002    0.92750069128171    2.79052835268278
H           0.65107991170008    0.27622027081297    2.00032003156262
O           0.92607585761912    2.66580323344730    0.37097588676605
H           1.57728709469374    2.09385968166276   -0.06708917871873
H           0.80539958013238    2.27354420038695    1.26161382878022
O          -0.64444368407894   -2.20494087489562   -1.89637677289074
H          -1.32622363649059   -2.73517967605125   -2.31278831077785
H          -0.67773216160308   -2.42729266033623   -0.94311943374803
O           2.13549013836144    0.44690029442698   -0.80759369804862
H           3.02844334315276    0.09993992608062   -0.82385247951143
H           0.99551020443547    0.33904737771768   -2.23886561014168
H           1.63576950846207   -0.13095298871257   -0.18757207847971
N          -1.14699078791354    1.54288972364544   -0.78922541322611
H          -1.97425115026230    2.08531602088062   -1.00788438724545
H          -0.72881880553888    1.08191184301292   -1.65696696872322
H          -0.38185900215191    2.14057116083219   -0.34572653124052
H          -1.37183927050920    0.77360186326032   -0.10754286524272
