    26
        -50.45694556  Gyration_radius:  2.7531879346 Dipole_moment: 5.179
 S          -1.70729195051937    0.55118375411068   -1.91732160658628
O          -1.90714465781427    1.47622266573226   -0.79858676545410
O          -0.53685371060003    0.93847273784889   -2.69634693649663
O          -1.69940664383068   -0.83202494518519   -1.51257158389543
O          -2.96215919845850    0.74949172842669   -2.86894297145925
H          -2.93438818076171    1.68526070113486   -3.04321257695088
O          -0.40692221149408   -1.63281687700730    3.01421648908722
H           0.07294239249008   -2.36459695404471    3.40417041852462
O           0.04707475242280    1.01198639446311    3.34170090109467
H          -0.08790467684904    0.04057144657251    3.35178323707968
H          -0.74296143307005    1.39206569184257    3.72923985538992
O           1.77248666253640    1.05366224743596   -1.59024594855498
H           2.32333053838417    1.53946313946572   -2.20591065087185
H           0.87874221054519    0.98693695856940   -2.03934909514218
O           2.29032787002617   -1.57035267765836   -1.03408802234361
H           3.18394718220924   -1.59954568416655   -0.69015328195734
H           2.13072287353968   -0.65245936896453   -1.33081254458587
O          -0.06045988353789   -1.76421759095991    0.29420526765112
H           0.75691459753411   -1.94335949438649   -0.20875027070885
H          -0.40449252085035   -1.78582140588891    2.05187823257933
H          -0.75426294205084   -1.59158044097408   -0.38492606555033
N           0.16504392775930    0.88392544985214    0.64278274367768
H           0.13237025398501   -0.16894520148027    0.58703876856395
H           0.97276205149943    1.21241751462591    0.10413625970508
H          -0.71689115916555    1.22461432307758    0.15392402706804
H           0.19447386633425    1.15944588784086    1.64614209979222
