    26
        -50.47071074  Gyration_radius:  2.41596870984 Dipole_moment: 4.198
 S          -0.20215899027297   -2.00814583207201   -0.20320210872675
O          -1.03244157030643   -1.56995820077183    0.89247839828511
O          -0.63673632401766   -1.44140591102562   -1.48176080616462
O           1.22122328326544   -1.80628953658258    0.01161558378273
O          -0.41103797137439   -3.57295037410513   -0.32168796056161
H           0.27346222226393   -3.82508053230562   -0.93195493474773
O           1.29823321686199    2.02888694721041   -0.77252217793636
H           1.75775168563537    2.72870910923500   -1.23769622735087
O          -0.44398741909259    0.46271956836013    2.51041038854842
H           0.53404708351467    0.45628013854671    2.37930606313587
H          -0.73357710790201   -0.38775197030417    2.12234481485881
O          -2.61813150020302    0.03563937396613   -0.65657176808987
H          -1.93941167511290   -0.49803662435853   -1.13155829312823
H          -2.81482716785794   -0.50819656219759    0.11442157899332
O           1.97761387423502    0.34404676116124    1.46074130513472
H           1.80637997855265   -0.50835515987410    1.01639507135739
H           1.94887855895568    1.01547308910072    0.76614215732207
O           1.58448352775213   -0.19720468411163   -2.08054571761314
H           0.67908161933471   -0.55882406209493   -2.15501250664953
H           1.40775498317531    1.20494283715647   -1.33283706078764
H           1.96051708747046   -0.76662053985313   -1.39084438056602
N          -1.12989617208154    1.90464337999307    0.47537867405702
H          -1.76862199045047    1.23952546365842   -0.05629909919458
H          -1.59363632317463    2.78747681404981    0.65749064314573
H          -0.87369160956052    1.38974026059965    1.40348567150572
H          -0.25127128950690    2.05073623670320   -0.05771730871752
