    26
        -50.46263476  Gyration_radius:  2.56832715077 Dipole_moment: 3.549
 S           1.19575785833682   -2.03871320726760    0.16711487929363
O           0.76267330035142   -2.61062565463313   -1.08456793200225
O           2.33533481687823   -1.15399012862423    0.05360972739921
O           0.11133880828956   -1.40024294508428    0.92422579021130
O           1.63788321377594   -3.26335522858880    1.08251648059053
H           2.09545833322870   -3.82334995297498    0.46379959665301
O           1.67083770204213    1.05080219577591   -1.25880825684500
H           2.19283383310946    0.26656124576727   -0.99859444054336
O          -2.27882825187273   -0.98118786417979   -0.10989306978064
H          -2.92828791942668   -1.50818605790141    0.35663264479512
H          -1.40487995667987   -1.20003246603615    0.28784328496917
O          -1.09184006194908    2.80733507016003    1.60565294021293
H          -1.01076192583035    3.75001358480666    1.45439696121564
H          -1.56808920832805    2.44160910104297    0.82072007610262
O          -2.03510307189076    1.68218361510704   -0.59703496548548
H          -1.40452109325896    1.60388738878279   -1.31875179471349
H          -2.27211218278812    0.76495336001586   -0.36289964990237
O          -0.37690430401032   -0.46081896061253   -2.14174134477413
H           0.91560688616693    0.66881444808006   -1.74834296044322
H           0.09315445590138   -1.29207023266296   -1.93093159171145
H          -1.26784674724627   -0.61329205875671   -1.80506066202268
N           0.92545425272729    1.07949131425451    1.25319955853748
H           1.73320209202094    1.13516414703361    1.86422214490904
H           0.17952138402636    1.76365526111576    1.52632346119534
H           1.23043618420731    1.24194140476078    0.23899638382928
H           0.55968160221430    0.08945261062461    1.25737272830897
