    26
        -50.47071373  Gyration_radius:  2.41583259013 Dipole_moment: 4.143
 S           0.43276238627212   -1.90555397409941    0.54039475042231
O           0.48255808305744   -1.88944621369285   -0.92311660355729
O           1.41691173671587   -1.02524505979631    1.12249058276617
O          -0.91956608506628   -1.69358592367659    1.02919868502907
O           0.83027205296358   -3.37339081979580    0.98126380331673
H           0.04516958905930   -3.86778969544349    0.77227123723803
O          -1.70885614013002    1.48232836024852   -1.12826303250187
H          -2.35267502716994    1.91345992706636   -1.69120545291179
O           2.37581730553275   -0.13572411620329   -1.28222028849949
H           2.81263535051604   -0.31024485335853   -0.44093268735744
H           1.68868874810162   -0.84098503502923   -1.32033433574452
O          -1.62458549752273    0.83229592446866    1.67461482386727
H          -1.84699860496313    1.16155544752698    0.79358368814459
H          -1.43817094344123   -0.12000331440839    1.56544884351703
O           0.92812277158093    1.46760172204335    1.92339150112758
H           1.24059027286557    0.54465677365307    1.83223539705795
H          -0.04328482582414    1.36979576890585    2.06626154145011
O          -1.97026488382024   -1.09264405464945   -1.34989475918741
H          -1.82518154723705    0.49787969387431   -1.27715855478499
H          -1.06016749858242   -1.41803248948604   -1.50134268701498
H          -2.11286547031895   -1.34521807569567   -0.42469579784205
N           0.92973156958926    1.97374737115767   -0.61374468474638
H           1.52125720847261    1.17444948641556   -0.99393819635346
H          -0.05754852400639    1.85362547576395   -0.91121843593961
H           0.96340300324537    1.87557460164031    0.47286261707002
H           1.29224497028977    2.87089308256351   -0.91595197442191
