    26
        -50.45862422  Gyration_radius:  2.50360779018 Dipole_moment: 5.104
 S          -1.80089644780654   -0.89995215404076    0.43732047839962
O          -2.59803618837450   -0.69081179541281   -0.74150869551097
O          -0.69412502262745   -1.83370033032177    0.26831880501919
O          -1.32445880936134    0.33811351694070    1.04938003495349
O          -2.77501171081698   -1.57070070186281    1.49797241894018
H          -3.61151549726774   -1.45207029906002    1.06117223760115
O           1.14428344751125    2.09748514481020   -1.16056164400217
H           1.76531686297421    2.23155864913113   -1.87745133368777
O           0.74080844455432   -1.97051966855347   -2.00021246907404
H           1.61183183405875   -2.04117740293040   -1.60278901627768
H           0.11022922351482   -2.09550721838960   -1.26746221282852
O          -0.39981511255282    3.03467757331032    1.22670915157618
H          -0.11780533749632    3.14072857505803    0.31299167933911
H          -1.02983238902487    2.30423153079280    1.22230785465139
O           1.82367148275174   -1.82751147587525    1.03747586587827
H           1.95060183325605   -2.49059529498179    1.71724872171118
H           0.87890479183749   -1.90021103134366    0.76168328247917
O          -0.58947741393218    0.41679720839626   -2.12050721326039
H          -0.09535998600169   -0.40023152998609   -2.31567659822061
H          -1.41103758613079    0.12174106330982   -1.68937740585718
H           0.41667901664651    1.52775863286501   -1.53502518111610
N           1.23741172217048    0.78947828759089    1.15872822948260
H           1.39580611941513    1.30387896348328    0.25687054536433
H           1.73567374941316   -0.12038782674655    1.19422280647579
H           1.44741772191995    1.40650161281579    1.93830036417795
H           0.18873524136649    0.58042598100037    1.16986931378672
