    26
        -50.45862436  Gyration_radius:  2.50362238538 Dipole_moment: 5.104
 S           0.71450091748028   -1.86950362288551   -0.48929459036205
O          -0.73946539924825   -1.78642028613361   -0.42321044664640
O           1.26842112448204   -1.70423877078506   -1.80638307573470
O           1.31377822916081   -0.99079398822626    0.51237078591650
O           1.08349622249907   -3.35205405191089   -0.05382969098542
H           1.70346839040954   -3.58200002879059   -0.73757754049781
O           0.48311698843274    2.60793936215065   -0.14856992793746
H           0.03967401706681    3.36806820137825   -0.52691414089204
O          -2.15352690673062   -0.08156096879005   -1.94581363947000
H          -2.76858776732974    0.21918592648487   -1.27289367911847
H          -1.69507570901613   -0.84771760706317   -1.55469032637842
O           2.54489442390119    1.34013485485003    1.61237055783185
H           2.48691815751961    0.46586584043346    1.20893960995946
H           2.29610958584534    1.96245339751325    0.92208804564112
O          -2.42137750300395   -0.61238026581757    1.22703501625986
H          -2.87977306141324   -1.27813717755469    1.74134349015591
H          -1.83721340902552   -1.10687293641236    0.60400138947561
O           0.42574406063201    0.82533055250660   -2.03837370252282
H           0.86229717267935   -0.04485465377423   -2.02832196016644
H          -0.51591831080134    0.63705063180383   -2.20442054042191
H           0.55645930175280    1.94145721894652   -0.88654309104501
N          -0.17911688242674    0.79130863117004    1.68464022466517
H           0.20163580594359    1.01422975959603    2.59999082045417
H          -1.15732257498001    0.44488856664032    1.70723556382051
H          -0.05581124344088    1.61683438057544    1.04726243806700
H           0.42267438961267    0.02178704409388    1.24955838992987
