    26
        -50.46975346  Gyration_radius:  2.44464959101 Dipole_moment: 3.635
 S          -1.50296506077794    0.40234956472549   -1.08149024325996
O          -1.03938036585735    0.62604225558142   -2.42832659333773
O          -1.22075530569326   -0.93008271982220   -0.58275982384064
O          -1.03835998835677    1.42276298903417   -0.13874139353058
O          -3.08080251251551    0.56637523740897   -1.12400063912334
H          -3.23803527078677    0.49150720141925   -2.05851843598047
O           1.89368107982979   -0.94409648820651    1.51805774590066
H           2.40654938132697   -1.14938382438166    2.30007585682235
O           1.22298222562763   -2.00449741182961   -1.08640816828199
H           1.61745176104958   -1.89870074416112   -0.21126531400070
H           0.27904052294073   -1.79535644203896   -0.97142479312976
O          -1.88615957512514    1.06606280661672    2.35831791112552
H          -2.84416116809637    1.03805539489127    2.34526049642923
H          -1.60955544697721    1.29389372684085    1.44726569437542
O           1.60768154905926    0.25248713936060   -2.42314261483246
H           0.66875195604579    0.43385383363529   -2.63494992296481
H           1.61807628438812   -0.69440946794527   -2.14951789498319
O          -0.61791725456863   -1.30533548807816    1.99876751557908
H           0.93127191631024   -1.11787391410212    1.75973122007602
H          -1.03163964902933   -0.50308760632010    2.37143687604456
H          -0.93149314823123   -1.32895954877123    1.07399373599584
N           1.58134031568724    1.23567031910235   -0.03652089288692
H           1.73953660949262    0.89224637801942   -1.05863691250035
H           2.11251622230896    2.07352968898062    0.17268158075892
H           0.54599274769231    1.41794270242525    0.01821669002296
H           1.81635218425785    0.45900442760572    0.62189831949667
