    26
        -50.46047698  Gyration_radius:  2.51704106528 Dipole_moment: 5.330
 S           0.12586701367366   -1.99154763240423   -0.92879744769155
O          -0.80744340102539   -1.29919712881670   -0.05423180897748
O           0.17256775968936   -1.48849615264997   -2.27786895217366
O           1.44281537919458   -2.07424477009665   -0.29610128791182
O          -0.41011828472039   -3.48415279015190   -1.03944951316240
H          -0.12749250100199   -3.71489822624993   -1.91812873129319
O           1.27047581915462    1.81516502340161    0.42150341995804
H           1.90885566355256    2.52280431889843    0.32585534564643
O          -1.86345270233977    2.23541367864792   -1.82064275331474
H          -1.93753622664614    1.89182574445236   -0.90679516713791
H          -2.10642526140344    3.16132202723110   -1.78916214931132
O          -1.48059966769622    1.21135596255269    0.67127970247067
H          -1.34469083530461    0.31729675566770    0.30249385134933
H          -0.59490350352044    1.59650942915488    0.72802131613176
O          -1.00580638302056   -0.91940025317417    2.56670275632116
H          -1.48514210032154   -0.08519284094620    2.48356530827766
H          -1.12385662193410   -1.34539484399806    1.69448567240425
O           0.64166225155184    1.10677562066642   -1.95987322610518
H           0.52342339372540    0.15202914747013   -2.14216680842366
H          -0.23573563840741    1.50704484827084   -2.11121456224610
H           1.06482081528825    1.50706550141970   -0.52270299913891
N           1.49394414062951   -0.51710434340029    1.74205997129624
H           1.51626805452194    0.43746261819514    1.31737336191116
H           1.52008510990780   -1.21484825794635    0.91651269741837
H           2.27647037453123   -0.66932369435931    2.36831334026716
H           0.56594734191981   -0.65826974183373    2.22896867343601
