    26
        -50.45862464  Gyration_radius:  2.50360022602 Dipole_moment: 5.104
 S           0.18492488991051   -0.90961651439271   -1.83931549418360
O           0.49828462428778    0.51409302130271   -1.84457995758807
O           1.32293073939264   -1.77712122399626   -1.69339157046894
O          -0.88661875555927   -1.18451769985026   -0.88484688288752
O          -0.41212990533530   -1.22618410729435   -3.27699012139730
H           0.07179744366505   -2.01579091848777   -3.49386857646242
O           0.16538389782023   -0.37350233127816    2.62474383629726
H           0.68618668421515   -0.00499049763535    3.33926424460001
O          -0.59803284602678    2.62304917029664   -0.71260333474127
H          -0.17395563512530    1.87353635910255   -1.19455501090579
H          -1.01433641825613    3.16503747228034   -1.38403795343173
O          -2.13291528661853   -1.97025607493203    1.56186737645655
H          -1.77749312692602   -2.06232691562514    0.66986033995689
H          -1.36841198049218   -1.87825683026103    2.13867471995729
O           2.42500191196255    1.56955525928625   -0.29602777615953
H           1.94955535984657    2.35185711942583   -0.00693270047682
H           1.88736495260823    1.19004740402570   -1.01511353619934
O           1.90443745956205   -0.89703578137607    0.76630377064134
H           0.82170906006815   -0.66890212809091    1.93471363842819
H           1.73419840105570   -1.35915783575298   -0.07356162804652
H           2.29529692500983   -0.04115071118697    0.51238351041971
N          -1.53529400227411    0.64859414056289    0.84654819545893
H          -1.31274133339564   -0.08310870312656    0.09910615753347
H          -2.50369485785752    0.52955819972421    1.13037308115519
H          -0.90561967776640    0.40590848779509    1.65133104799179
H          -1.32582852377034    1.58068162947665    0.44065464405470
