    26
        -50.47304700  Gyration_radius:  2.48610108588 Dipole_moment: 2.158
 S           1.03670706215296   -1.50649483668173   -1.07700319619305
O          -0.36952086390721   -1.75175539121011   -1.37554403367081
O           1.66208312182532   -0.64291791230604   -2.05754093792620
O           1.23981970903810   -1.07739541903098    0.29368724218252
O           1.76401349933346   -2.91056956796982   -1.19587523552744
H           1.79623766768509   -3.04409311505946   -2.13727083166204
O          -0.26443636315581    1.81647858396979    2.58677036923172
H           0.10514375759361    1.47336376180515    3.40174177834374
O          -0.98509428504843   -2.13431185356886    1.17494062262802
H          -0.04809301902616   -1.85893275236570    1.19420913573262
H          -1.10777031661188   -2.30076033464515    0.22418965169334
O           0.88559792135954    1.81838612770895   -1.80034783991410
H           1.18458591147059    2.33211939790119   -2.55230248688407
H           1.23846048865071    0.90106751191605   -1.93431555454388
O          -1.52793258463947    0.63644531175786   -1.32612111366508
H          -0.78103457922055    1.23182088562239   -1.51665169533187
H          -1.18053568422495   -0.26759084683482   -1.48178925114637
O           1.65209785300740    1.51796690384285    0.84266123903649
H           0.48847648122563    1.80909269199584    1.93087612083861
H           1.63850105362449    0.55040029102709    0.71101031958974
H           1.44078227270130    1.88515223469026   -0.02909133289659
N          -1.99445432373432    0.31216410116996    1.24083678877568
H          -1.36408431640699    0.93058115125950    1.82036522658536
H          -1.67751686066618   -0.69826024005770    1.33495839952579
H          -2.96339595958303    0.42127783952226    1.51820146112906
H          -1.86863763342631    0.55676548565253    0.20940514415280
