    26
        -50.46047695  Gyration_radius:  2.51692982886 Dipole_moment: 5.325
 S          -0.73134497177628   -2.03231281333565   -0.42259503845359
O          -1.31891688650171   -0.70746913738720   -0.30076476360705
O           0.09877902169673   -2.21770332719900   -1.58525728825019
O          -0.06899476942644   -2.40665085999439    0.82746202751722
O          -1.95375707001428   -3.03369514604827   -0.59692576018548
H          -1.56146936448829   -3.70824463648077   -1.14111660182122
O           1.82370198270662    1.07112893889190    0.78429925733664
H           2.73461698920629    1.31422737114681    0.95328374343980
O          -0.60318337350020    1.89172835707706   -0.41353036031615
H           0.23939125139873    1.83874897370999    0.05890472439432
H          -0.89168176267846    0.96485752454566   -0.52096800860236
O           0.64443980501325    1.83098838636021   -2.83142198842069
H           1.00297166588640    2.68761974749338   -3.06590003757631
H           0.05111529772691    1.97233746600878   -2.06553948879187
O          -2.21692254748455    0.77784255706032    1.70978841011366
H          -2.22772558143382    0.12425721740683    0.98264337523419
H          -2.04028423657616    1.61634598382248    1.26439591771330
O           1.83773011506456   -0.21544524110800   -1.43231032257815
H           1.84435463057565    0.52066039989997   -0.06727799203208
H           1.26118952285577   -1.00266845385443   -1.51360597390632
H           1.49625809555653    0.42138419635026   -2.08865691321235
N           0.12399905701598   -0.33272539134072    2.32518200987318
H           0.04007974019688   -1.24654355202983    1.75342855816347
H           0.85799060987838    0.24090819662235    1.85155265812050
H          -0.80736264921009    0.16152520704444    2.24523053767789
H           0.36502541830824   -0.53110196466439    3.28969934817039
