    26
        -50.46944586  Gyration_radius:  2.48517195266 Dipole_moment: 3.882
 S          -0.61779046946833   -1.84414985413786   -0.37449354082449
O          -0.85946029957847   -2.00430847281611   -1.78491748874879
O           0.76029375931305   -1.96360111541791    0.04694505003149
O          -1.22168390502627   -0.61475258059641    0.15775409679170
O          -1.39961303857619   -3.03826599910030    0.33353994417007
H          -1.95504098099199   -3.35850361934169   -0.36948117860687
O           2.42364197857143    0.11493431848763   -0.53799271997393
H           2.23839175251618   -0.81927610250006   -0.35609144097347
O          -1.74584654731103    1.60558088075479   -1.13983525703319
H          -2.67888943220692    1.67024263564353   -1.34806286498992
H          -1.62691000812179    0.74979887164314   -0.66330293301590
O          -0.31364490454729    3.25515020580415    0.49436092903966
H           0.24896794948058    3.79079553973640   -0.06751080762004
H          -0.91222899206037    2.76595771416470   -0.10543500794816
O           0.80651793947331   -1.45053334607672    2.68001788697957
H           0.50467131036795   -2.21702866388226    3.16781043667828
H           0.83260668937321   -1.72351165341879    1.74181496770832
O           0.46059911557580    0.27359777667303   -2.35213536110386
H           1.88518329095962    0.29898687729924   -1.33696080760752
H           0.03887760147988   -0.60235898503415   -2.30734342169320
H          -0.24327014764233    0.91229827090559   -2.18214785974516
N           0.68265024541773    0.86561240123249    1.28595436216655
H           0.90430009422785    0.51503991342949    2.21871335379436
H           1.49647348596011    0.67166208485520    0.62233874625795
H          -0.11270926983601    0.28192002479407    0.92759117257255
H           0.40391280273699    1.86471286685816    1.24886972373368
