    26
        -50.46975322  Gyration_radius:  2.4447092183 Dipole_moment: 3.634
 S           1.05182300217381    1.55050774004168   -0.28333768264890
O           0.22523846078850    0.95643483914322   -1.31659627461983
O           0.41996164193089    2.65142664424679    0.40056959937942
O           1.56378208560100    0.52614244711417    0.63009432177129
O           2.33754056305864    2.15035328335034   -0.99425963324083
H           2.12951679623116    3.07782366880100   -0.97592096196424
O          -1.52749591204159   -2.10813489092000   -0.02991838718544
H          -1.79793976101669   -3.02600632127181   -0.06311375288011
O          -1.81272579086332    1.70603007366800    1.52580471426363
H          -1.05581811988113    2.23886131744648    1.20549500724477
H          -2.27947614652411    1.42597452075248    0.70410228033725
O          -2.40577555288550    0.54281818570996   -0.78186282216167
H          -2.38369634184630   -0.41274620513980   -0.64416572725854
H          -1.53079762300658    0.77241325307384   -1.14205750214034
O           2.75847815060345   -1.52032594671897   -0.58101974093734
H           2.40357329236406   -0.76015430954504   -0.07639203759921
H           3.47089608821931   -1.17204370200390   -1.11932418952341
O           0.32733558127640   -1.67961308368079   -1.77528276686086
H          -0.81957121147838   -1.99849649613503   -0.73817865314033
H           0.27514017560404   -0.70441336318589   -1.79313321086207
H           1.21356109384766   -1.86552183970731   -1.40975368829298
N          -0.51224640525796   -0.49626482844276    1.87643273581359
H          -0.93733515815710   -1.21186098563620    1.24432171048194
H           0.39874925652194   -0.17841003933479    1.45543548258109
H          -1.13685986909707    0.39653756636134    1.86966045307189
H          -0.37585828615514   -0.86133152799164    2.81240072637415
