    26
        -50.44449792  Gyration_radius:  2.65650357695 Dipole_moment: 7.385
 S           0.62012641984317   -2.47324203852432    0.34776298920472
O           1.62005531292496   -2.30108003371669   -0.71321454476545
O           0.99281114868630   -1.82210287425857    1.57555129695031
O          -0.70627141783736   -2.11589136369799   -0.13949575098954
O           0.56177387667261   -4.02795180784596    0.65604703888515
H           1.24560977752166   -4.15929636256873    1.30664507369962
O           0.47670108522817    1.50045220177794   -1.16697236867795
H           1.13961393346960    2.08484818963073   -1.53946125525698
O          -1.82293013344324    0.28737157045920    0.44068974414294
H          -1.21028557138042    0.71834777025331   -0.16261459636198
H          -1.57045753469976   -0.65068052758285    0.43529613456011
O          -1.31839870157050    3.34182302110519    0.13062971953188
H          -0.71382876187440    2.82320326899009   -0.41941114555638
H          -2.16556617610398    2.89001098920597    0.10478999506397
O          -0.59870333263564    1.86059119736976    2.39711931291773
H          -0.77589493395485    2.65669430207437    1.87151928599913
H          -1.20797139394451    1.19022941106867    2.04746809505772
O           1.42016188881978    0.75935766708476    1.05375641893501
H           1.36043577974027   -0.19452458326070    1.26444197748225
H           0.88615821917071    1.18405160695326   -0.26744725037469
H           0.81673298481398    1.19842566347864    1.70343351890321
N           0.17965820382751   -0.92807492075268   -2.24375257922975
H          -0.59210392597922   -1.34087848574622   -1.67603019502312
H           0.29157699682616    0.08490296270274   -1.98232537148245
H           0.99262166021135   -1.48868794425521   -1.78321906419087
H           0.07837458567478   -1.07789886994082   -3.24120648942512
