    26
        -50.46178308  Gyration_radius:  2.41381211043 Dipole_moment: 10.259
 S          -1.39341706495610   -0.19897145322141    1.20049494957650
O          -1.01300869013694   -0.99520382480257    0.03008830783028
O          -0.18886552328714    0.43725502481555    1.76243424196568
O          -2.47082977748476    0.70244322868346    0.97317312669202
O          -1.84916386603276   -1.25466364847956    2.28724849191226
H          -1.13571324911595   -1.89133196597953    2.33410067953782
O           1.82206970111400    0.72668319250688   -1.47410634693442
H           2.51393529310464    1.22107424536181   -1.91539292140016
O          -0.79217660404346   -0.01670095990067   -2.49146323564215
H           0.14917367754806    0.18949583209280   -2.44319705769790
H          -0.98692141501101   -0.48637919310103   -1.66403928539664
O          -1.93122167046014    2.17238947916738   -1.29561481478839
H          -2.35758286766226    1.73694753186466   -0.54024923670070
H          -1.69822285971185    1.45796143814969   -1.91954958373101
O           0.41556813543609   -2.85835901019353    1.00729159368106
H          -0.19346465285235   -2.22013079350013    0.54464594217797
H           0.28440844952677   -3.70899278957403    0.58508612994502
O           0.39376319550717    2.35095284640699   -0.10138153629334
H          -0.46087714514346    2.47813116790521   -0.59374113010189
H           0.14383420381687    1.85907292631857    0.69670925855006
H           1.25155920499905    1.41646077442929   -0.99119212629490
N           1.93702658239525   -0.63589202784396    0.80026120410990
H           1.08980250086597   -0.14344747290996    1.26268350616195
H           2.01159565009807   -0.22090767146135   -0.16792403242275
H           2.78278818482389   -0.48022479719195    1.33830398097142
H           1.67594061664234   -1.63766205956231    0.77532990423992
