    26
        -50.46433711  Gyration_radius:  2.51951749466 Dipole_moment: 3.800
 S           0.17931348342709   -2.17430859148489    0.31689401359163
O           1.60978058412266   -1.87973548130606    0.36641477186996
O          -0.40698729739815   -2.24375028624627    1.63776609365345
O          -0.51868216714373   -1.26294963573269   -0.57234494664767
O           0.03443998706056   -3.61101900771907   -0.32889161259538
H           0.35455372628600   -4.16912696637888    0.37199736506511
O           0.98329727023683    2.14252601052884   -0.58366839363444
H           1.33221895616589    2.94293909414139   -0.97626004523373
O          -2.27990256810704    1.11940457651311   -2.39875045181693
H          -2.23955474103740    1.23278262412807   -1.43115291791782
H          -2.76749109933857    0.30772429929706   -2.54880841197848
O          -1.49717490650153    1.06184508669397    0.26158070479673
H          -0.74637138333843    1.63891733583283    0.05592050973255
H          -1.22003346515963    0.16242057858478   -0.01949354964826
O          -0.52787912247981    0.18533630011529    2.66068967916911
H          -1.13790730590850    0.61056121116988    2.02910559490401
H          -0.58659700416488   -0.77540904049728    2.45856995262076
O           0.36865726433532    0.45138208485798   -2.42614131123137
H           0.19534381347894   -0.33333234621728   -1.87174748771508
H          -0.52423303937630    0.76692249607078   -2.67291535846338
H           0.81858106785737    1.50192526013147   -1.34883769921125
N           1.74103227936167    0.48304310123958    1.41088497753393
H           1.79695661354292   -0.48636465946792    0.96215132338526
H           1.59176019130861    1.19169706314653    0.66168058418608
H           0.86703019545156    0.45421099683201    2.04069209815295
H           2.57984866731090    0.68235789573849    1.94466451747193
