    26
        -50.47080969  Gyration_radius:  2.42843947955 Dipole_moment: 4.789
 S           1.25602980051810    0.98363815586060   -0.91317593757021
O           0.24855934775222    1.97983269595757   -0.56142146264293
O           1.95088251729919    0.50557279391811    0.27536101573381
O           0.74401981282158   -0.08646957187992   -1.73301487208872
O           2.32983390893199    1.74688050275500   -1.78391652941560
H           2.55571609165965    2.47456867557632   -1.21512720732895
O          -2.60700416670213   -0.73723359257530   -0.20344128441707
H          -2.54161633773955   -0.22783923928488   -1.03852482426611
O           1.77998307528776   -2.08466578254177    0.92983888807223
H           2.50124627233060   -2.61177873382702    0.58372628606997
H           1.91978611871626   -1.17293467241850    0.59822056237202
O          -1.72811069892841    0.85020665178598   -2.20539292596816
H          -1.54305074914428    1.73903323860768   -1.89010436216420
H          -0.85353572102691    0.42170334218348   -2.23346142394110
O           0.74169645310891   -0.02836006719967    2.63518069048739
H           0.88029978546988   -0.98173724518549    2.60859857580753
H           1.31689967629325    0.31631139181476    1.92577876045832
O          -0.48324360257190   -2.27269296209043   -0.62994298297897
H           0.17718291666269   -2.42981923460151    0.06364323722719
H          -1.95775059117136   -1.46987040914756   -0.31836742356654
H          -0.06289143966977   -1.62460472607026   -1.21813141136296
N          -1.33878099859775    0.95075788766258    1.28461566797596
H          -1.93906278500123    1.60480418479904    1.77508463988287
H          -0.75100031238188    1.45156713085501    0.56903601140644
H          -0.66566470679947    0.49479489277242    1.94989323615526
H          -1.93042368715846    0.20833467217275    0.74504507600351
