    26
        -50.45911314  Gyration_radius:  2.43565853612 Dipole_moment: 3.782
 S          -0.24898488376634   -2.12601487081161    0.31377570900506
O           0.79744948980899   -1.60661286371813   -0.55465892777317
O           0.06898096542688   -1.94346207193702    1.71435115084947
O          -1.56069048861107   -1.62181095025579   -0.05274082444808
O          -0.30848465467473   -3.69145434318980    0.07640391713519
H           0.40305247321346   -4.00701098798027    0.62353322249563
O           1.22848898171517    2.21316247312814   -0.77726040468251
H           1.83858869728026    2.95020381146877   -0.80590389645553
O          -1.84468188640553    0.24167782354917   -1.70950738927945
H          -1.76591146045124    1.05111566092574   -1.03077550406581
H          -1.82286251019691   -0.58247657158014   -1.09612939892248
O          -1.36411451437719    2.01204658527730   -0.00784911785988
H          -0.45253813110143    2.25562155350720   -0.26304417064142
H          -1.28322670153928    1.47277431309672    0.81169146506198
O          -1.17512288008591    0.34333229146349    2.08620643367836
H          -2.08124530668413    0.11035484985288    2.29789680697903
H          -0.70882804317657   -0.51507842913913    1.97823574814116
O           0.53750658301041    0.18075272671516   -2.47494865148152
H           0.76530709038684   -0.56713872897138   -1.87850271172529
H          -0.90225811386044    0.22720844303868   -2.18542751034867
H           0.89544662839229    0.97641072206452   -2.03698918244291
N           1.85215560234332    0.48442933407260    1.08565588727709
H           1.56866114577642   -0.37102420281697    0.60672089179148
H           1.54382598835778    1.58926066977918   -0.04580656602110
H           1.23224020739176    0.58670520606035    1.88084611130671
H           2.78724574182734    0.33702755639984    1.44422690242716
