    26
        -50.46876206  Gyration_radius:  2.44223997034 Dipole_moment: 3.647
 S          -0.92666588271261   -1.53574083875304   -0.77869571734971
O          -1.09419860229627   -2.38272057616059    0.38058127101696
O          -1.66462729078717   -0.28835025207102   -0.68821588143402
O           0.48073928379086   -1.29216972771700   -1.09317998526261
O          -1.51851790817152   -2.34862847729222   -1.99798723778924
H          -2.03645490848589   -2.99716652041955   -1.53465736477450
O           1.52736166889236    1.88948172541272    0.61873950313723
H           2.05306323602669    2.68847047825152    0.66310401008203
O          -0.22815578658039   -1.25798406435431    2.63049061683933
H          -0.66388800265611   -1.82663534010870    1.96206408084835
H          -0.64907704496159   -0.37615616748095    2.50621587478437
O          -1.49499835456043    1.86792576472206   -2.23989302018637
H          -1.66638112579975    1.03413022411222   -1.75698802994853
H          -1.96754185430839    2.55090407792003   -1.76084263462447
O          -1.01831090059642    1.04469909943914    1.56346282706458
H          -0.21283615058016    1.50932989654067    1.29581308054438
H          -1.36519249472931    0.61780426978290    0.75808436348485
O           1.10036318018288    1.23501126598343   -1.83719773839974
H           0.92935261146586    0.28002355029681   -1.73900630978554
H           0.24707369976149    1.60795039882216   -2.13616064879946
H           1.36927517550505    1.70621741252986   -0.36079092259535
N           1.79656715178584   -0.75048545034907    1.11721847997766
H           1.05582674109248   -1.00351690494209    1.87673781123368
H           1.37430678169260   -1.06578264919829    0.20232817507882
H           1.87980004776819    0.28661515627584    1.06597448985411
H           2.69311672926289   -1.19322635125580    1.28280091701709
