    26
        -50.46433747  Gyration_radius:  2.51896474341 Dipole_moment: 3.791
 S          -1.37657694878658    0.54057237191722   -1.63379757419768
O          -0.61044551647655    1.78485210206826   -1.63537139471731
O          -0.89696431308536   -0.39393466357352   -2.62893598731226
O          -1.45448132442281   -0.03102696708286   -0.30125800574368
O          -2.85904907395273    0.91921639323348   -2.03504862882333
H          -2.76332096277897    1.10210256594444   -2.96385287861017
O           1.62289443171847    0.62343813859762    1.69503577576356
H           2.12372915687203    0.88766235386356    2.46699850279107
O           0.39353731415293   -1.69670016587877    0.63046412954588
H          -0.33451640970615   -1.15905265103360    0.24871171958203
H           0.97861973660987   -1.06237905064512    1.07146901200704
O           1.44154828713502   -1.35021820544037   -1.86778536780725
H           1.18187666880889   -1.81149127829668   -1.04814171666146
H           0.59194774377727   -1.13297450366249   -2.31304842071883
O          -1.33977446909229   -1.61017856031332    2.79451892807441
H          -2.20480247667428   -1.83662710372879    2.44866366801191
H          -0.69764164593603   -1.89741667464438    2.11945571409296
O          -0.89206678315246    0.99510698967725    2.10585014479952
H          -1.11956660909641    0.17678414768146    2.59194260798496
H           0.65733522676880    0.84900007475176    1.89466803189358
H          -1.22853979436588    0.83315515394406    1.20376018458669
N           1.78403471728993    1.07182688087460   -0.96564686974509
H           1.79952581813021    0.07425904442336   -1.37328345348605
H           0.83004175024609    1.47226319709395   -1.23745649014891
H           1.83804366670085    1.01075575353475    0.07305259707703
H           2.53461177929575    1.64100466667943   -1.34096421823341
