    26
        -50.45648560  Gyration_radius:  2.49220872346 Dipole_moment: 7.657
 S          -1.08005436650397   -0.73537310181439    1.45513175448940
O          -1.92361635792516   -0.42282334042196    0.31979561754829
O           0.27223620768735   -1.12754742003210    1.00618053400544
O          -0.99481194075394    0.33629633607092    2.43300531677592
O          -1.67217846557049   -1.98170315814647    2.18757727147094
H          -1.75393926273088   -2.63995702161833    1.46686977996967
O           1.35726623954733    2.23050708504559   -0.30671324149992
H           1.46754310906277    3.16869684807968   -0.46652941204370
O          -1.59864830709277   -3.01459677586535   -0.25196525659088
H          -0.67035200277954   -3.03146860226012   -0.49955786027946
H          -1.89841832168925   -2.10293010856411   -0.41049981657192
O          -0.30349579356715    0.03574706346586   -3.16916862434837
H           0.12206819937348    0.18656561025468   -4.01373766693602
H           0.38722921085366   -0.31132205506388   -2.56404771219114
O           1.54417681146092   -0.50358198884756   -1.28458891189702
H           1.74958152140778    0.41816852955556   -1.08661946120362
H           1.05255266202351   -0.83435227549927   -0.50920137105412
O          -1.01094521172220    1.64982110435760   -1.08964907689973
H          -0.90754940499949    1.19227131783794   -1.94692349257436
H          -1.44375827852210    0.98193392128964   -0.52043262110666
H           0.40651073756755    2.01648200138357   -0.60175225385500
N           1.42988504405647    0.92905452505126    1.99626857279831
H           1.49946361357697    1.58292500800401    1.17112688911784
H           2.16238468937746    1.05954827208159    2.68449865428503
H           0.43878569965069    0.96581327801925    2.39257171371493
H           1.36808397820254   -0.04817505238028    1.60836064488792
