    26
        -50.46318568  Gyration_radius:  2.50858323513 Dipole_moment: 7.444
 S          -0.93123486082559   -1.56956580262644    1.01018222530945
O           0.02876874563242   -2.22827475569015    0.10969875960231
O          -0.23618674117238   -1.01632783496488    2.16181519518674
O          -1.77731996388285   -0.63864097940388    0.31815911953572
O          -1.85769944055373   -2.72379010780483    1.56520556554697
H          -1.26284667747035   -3.20201013726223    2.13308565806424
O           0.33419789338267    0.64544102901419   -2.42059192612578
H          -0.19020498191281   -0.16272030902605   -2.62267734415419
O          -1.15321884610525   -1.57496632595362   -2.23858400353883
H          -1.94804778041485   -1.17590582787830   -1.87006881259198
H          -0.71652616619365   -1.98209555112559   -1.47006913655361
O           0.06806761613692    3.12996410290032    1.05115698112738
H           0.71902283359404    3.70785843673496    0.65007641654611
H           0.54535008181949    2.35210973964968    1.39108559424561
O           1.45700781210344    0.88176789773945    1.83393901541060
H           0.74901346182769    0.19207850815314    1.98873712069395
H           1.92379674809528    0.95613529819460    2.66830012369368
O          -1.40530232051352    1.79807126036101   -0.84947440608873
H          -1.69226851067026    0.99022936141347   -0.39168293996668
H          -1.02796749379369    2.37168928189630   -0.15925226254858
H          -0.31187327981818    1.22023492518307   -1.92523132294153
N           1.77086734074191   -0.39129607132470   -0.58037436647707
H           1.21924879794374    0.12592080594220   -1.40031004410497
H           2.67746480812849   -0.71624971565640   -0.89773932999676
H           1.86020065300113    0.21711121665195    0.24811874372058
H           1.15769028091759   -1.20676844511630   -0.30350465359305
