    26
        -50.46796614  Gyration_radius:  2.39133725834 Dipole_moment: 2.397
 S          -0.19734910425340   -0.85488926574901    1.59593680569567
O          -1.35371589843468   -1.64025498392979    1.22604218920654
O           1.05395693201621   -1.45105777673597    1.11797246900636
O          -0.28173457347662    0.54174662345519    1.23838222206054
O          -0.11722979757325   -0.89114274017725    3.17933663138610
H          -0.25613237683936   -1.81055453220386    3.38319939980056
O          -0.20080175983690   -0.24245479831643   -2.15291542737617
H          -0.07338119196366   -1.20828643691225   -2.04512637999413
O           0.03116327194814   -2.68247302214077   -1.05269582858783
H           0.49546602223039   -2.38762405646963   -0.24927838966944
H          -0.86242112389935   -2.87709103358046   -0.75620549965276
O          -0.82842900050804    2.48393269603830   -0.61710836930362
H          -0.82005918366012    1.76226414709242    0.03591403664006
H          -0.89000781216389    2.06793437782408   -1.48038700359073
O           1.53782662604366    2.63201258567877    0.66057923108980
H           1.12899067133191    2.20588901510674    1.42380134885906
H           0.77667911164476    2.95471625760720    0.13944828253511
O          -2.42509811173305   -0.10717814080796   -0.65259239578471
H          -2.77430037801762    0.67372492434983   -0.21855256156847
H          -1.06457318284093   -0.09034823812701   -1.71379579090477
H          -2.12732787264071   -0.70926545872263    0.05975636068298
N           1.87667512153134    0.33386124887378   -0.63619090965084
H           1.84779610160804    1.28958086095873   -0.17739989675573
H           1.06377072428302    0.22727878238748   -1.32099515996746
H           2.76401444407115    0.16467073399732   -1.09828998250200
H           1.69622233112901   -0.38499176950626    0.11116460834628
