    26
        -50.46907341  Gyration_radius:  2.47622436753 Dipole_moment: 2.898
 S          -1.68505406236046   -1.16347630056485    0.88823850977875
O          -1.99202561107720   -1.39740817868781   -0.51836637148159
O          -0.82563871943100   -2.17778408564235    1.45047403546534
O          -1.21136214839176    0.19463654783779    1.11239437335551
O          -3.06326367477886   -1.26437581167971    1.66878144780515
H          -3.20752308604497   -2.20438645825186    1.65901378449602
O           1.78767438440121   -0.38652051877455   -1.68274852850237
H           2.44623655816235   -0.84336694343016   -2.20697761297522
O          -0.88467777296181    2.33864832416949   -0.51177298772095
H          -1.16951663411347    1.76452004662606    0.22132892968649
H           0.08682698301392    2.45013080814041   -0.37903015401671
O           1.74251548341326    2.02391915308410   -0.16544555040650
H           1.92586737752756    1.28992400949658   -0.76864592506873
H           1.70531924070800    1.62731459785588    0.72045990818818
O           1.17596056927416    0.58960191315998    2.13486874192050
H           0.25857093675196    0.42942668459599    1.80755664481230
H           1.09820926820634    0.79394792729703    3.06731021278255
O           1.61198785749914   -1.63977265999766    0.57590276510633
H           1.78176799059164   -0.93901685885720    1.22459387556817
H           0.73525507826470   -1.99182751900933    0.83745716568171
H           1.70698045314349   -0.90877886826038   -0.82870827434223
N          -0.80673351761997    0.28299668339867   -2.09597907979184
H           0.19560017799913    0.00620559529791   -2.10536203618447
H          -1.33447963821092   -0.43086903636016   -1.50433172626830
H          -0.88882407260372    1.22187461032508   -1.56822452878815
H          -1.18967338136269    0.33443634823105   -3.03278764909994
