    26
        -50.47361575  Gyration_radius:  2.43352205229 Dipole_moment: 3.316
 S           0.69717561869265    0.57766443134304    1.22210156315782
O           1.21530781656936    0.91178300978054   -0.11477907954987
O          -0.59066594695230    1.21042659783569    1.43625091500870
O           0.65835691589289   -0.85856686387107    1.41942492506159
O           1.70864245645639    1.14141048716155    2.26875232876452
H           1.71925721256199    2.09955854252786    2.08636491794271
O          -1.82341167916312   -0.84594427330760   -1.71835866130967
H          -1.88025058303813    0.12898762277515   -1.62031055312306
O           1.16930661398476   -3.07644038763648    0.05846891277065
H           1.14488236599871   -2.35207519210971    0.71612221810385
H           0.40903066574400   -3.62838750650083    0.25657218247058
O          -1.45623128916676    1.71711074674642   -1.02484003108037
H          -0.64877532291491    2.05998247211328   -1.41341765876513
H          -1.24624600615423    1.55879262258231   -0.08037105681482
O           1.10650298690446    3.37559883633333    0.97020302322216
H           0.17445227468747    3.30672604623204    1.20438592489565
H           1.25535356060589    2.70566259273156    0.28466058771889
O          -1.91966859054204   -1.35969048276666    0.91235420048789
H          -2.37389083994570   -0.60922334213330    1.30367966615250
H          -2.01365490787112   -1.18652776347070   -0.81626792013878
H          -0.98735205626530   -1.24546108876801    1.17855526284333
N           0.75400974364164   -1.13266815613532   -1.73324692824271
H           1.23273116557235   -1.12500686477779   -2.62703117813953
H          -0.32379248431656   -1.06764117616632   -1.84448582526573
H           0.97902805119904   -1.99816072832753   -1.18238636032680
H           1.03990226781616   -0.30791017219790   -1.14240137584569
