    26
        -50.47001012  Gyration_radius:  2.4632722555 Dipole_moment: 2.608
 S          -0.27031313509387   -1.96885745203895   -0.98296748999835
O           0.28869402286588   -0.98074089080096   -1.87549822665638
O           0.70819354319418   -2.79452406206476   -0.31981249360227
O          -1.23857153127372   -1.36003884564434   -0.05992830494450
O          -1.15307855750677   -2.95846031992704   -1.86601231253486
H          -0.50000465814013   -3.58822335368188   -2.15213253253634
O           1.78943645436181    1.77045053944862    0.14874672511541
H           2.67152291738474    2.12921238512959    0.25256710941052
O           0.27015507223398    1.65060608087521   -2.13304793354085
H           0.37184994649632    0.68632218648554   -2.26729485833581
H           0.92939728217927    1.86411865475916   -1.44793245397413
O          -0.45861941022939    1.93520357029540    1.72607853905794
H          -0.42524957998331    1.06785926929118    2.16279406502877
H           0.40406161011056    2.03788949927006    1.28284002517042
O          -0.39516867848870   -0.75940050789601    2.35707889452441
H          -0.74351362926112   -1.04748469527941    1.47972877640753
H          -0.68837578922074   -1.41455720752301    2.99141534763033
O           1.92892390468470   -0.74791013530808    0.85332045805559
H           1.87194580653950    0.79338170066752    0.31603805936845
H           1.32985942768481   -0.75448069180481    1.61582049622904
H           1.64549641033579   -1.51083663055285    0.31529103825544
N          -1.70232572955857    1.20277616046178   -0.48548792654362
H          -1.00308767239181    1.49451887420409   -1.24686651270486
H          -1.35525289274064    1.60989614241747    0.43176483233640
H          -2.65045429488686    1.48768169065147   -0.70006340692448
H          -1.62552083929793    0.15559804856639   -0.39643992429386
