    26
        -50.46911892  Gyration_radius:  2.45472326083 Dipole_moment: 4.006
 S          -0.49779881831853   -1.67729254615730    1.39762189052423
O           0.73131741709932   -1.79286259282619    0.60385288755789
O          -0.75443969306504   -0.27964832070743    1.71713608367127
O          -1.61869789878682   -2.36594739442528    0.82677149302715
O          -0.18411635021924   -2.39884363008072    2.78111341833377
H          -0.71851489860049   -3.18498743806523    2.72602080574105
O           1.18312900487734    0.82315756899719   -2.27978467639704
H           1.49898768974830    0.81248483456510   -3.18347806220991
O          -2.30199280592757    0.08377892935945   -0.38477375767130
H          -1.79798329792438   -0.00466754886912    0.45284058098551
H          -3.00231092586455   -0.56959578697490   -0.31624313765343
O          -0.72464075078264    2.38790402084081   -0.87664789277250
H          -1.45007919269597    1.75331557566354   -0.80547941303459
H          -0.08429167090098    1.99431888594628   -1.48712579141002
O           0.49641277882197    2.08172623528019    1.48183768194435
H           0.00475225560723    2.41104558196636    0.69270659991829
H          -0.05424127538799    1.35656509942352    1.82837832072594
O          -0.35757332599959   -1.19882330502073   -1.79558638475560
H          -1.17986461209241   -0.79071391232489   -1.46134208999801
H           0.58404594746576    0.02286981314277   -2.17848609691612
H           0.02937322225932   -1.64074209735630   -1.02024499203039
N           2.07290207760966    0.43583441568904    0.25477624948363
H           1.59694932098880   -0.49242881997719    0.45073226601171
H           1.95112838698362    0.64290326042203   -0.75579662851907
H           1.52555098823553    1.18947370640507    0.81730825619709
H           3.05199643683663    0.40117545505858    0.51389239921722
