    26
        -50.46907343  Gyration_radius:  2.47621628289 Dipole_moment: 2.898
 S           1.54085714992405   -0.61633158154281    1.49269465777138
O           1.21593149999257   -1.94010243397276    0.97356017191576
O           2.62966925024225    0.01205746747579    0.78335051479388
O           0.35433095283335    0.21984676063546    1.60253591636912
O           2.04492542581258   -0.83211400218019    2.98208851866731
H           2.91079753359587   -1.19434788485455    2.82851690562207
O          -0.44810900524462   -0.38476140436893   -2.41387978970555
H          -0.28768609814767   -0.54369332498784   -3.34460405009992
O          -2.04321068542039    1.45344212945435   -0.93428363092276
H          -1.62592315616533    0.88182148125912   -1.59411894565262
H          -1.32481727279918    1.99825413748053   -0.57293571646954
O           0.22644560079787    2.48240286908677    0.27398816423984
H           0.30925484932559    1.66094304205399    0.81507319353156
H           0.41742111567030    3.21368880123778    0.86220816197419
O          -2.27724847512704   -0.22038896417593    1.13069346909152
H          -2.39702598326592    0.46817337103362    0.43394691325721
H          -1.43924464272681    0.01408971136254    1.56767585970445
O           1.61096574930898    0.88760714990453   -1.49518417025652
H           0.37579230117845    0.07412397031417   -2.06847888910066
H           1.21657058227887    1.68579980713561   -1.11042006414430
H           2.10114551289893    0.48618475094037   -0.74709621116028
N          -1.03589115319478   -1.98903878827518   -0.30883108094026
H          -1.42878625663527   -2.91244016809226   -0.44977379521632
H          -0.85972845836273   -1.50457450776078   -1.21191955606510
H          -1.67756543435011   -1.35819360959777    0.28874464756426
H          -0.10887089241958   -2.04244877956555    0.21644879523131
