    26
        -50.46309153  Gyration_radius:  2.44656085966 Dipole_moment: 4.778
 S          -0.70077486080628    1.81359585980161   -0.38770914777728
O          -0.67007752316002    2.28346457613730   -1.74277692852059
O          -1.65843872718321    0.76948325750303   -0.09536832573882
O           0.62893044525455    1.47033294054814    0.13928821726646
O          -1.17448960084458    3.05748763739788    0.51177583559944
H          -0.89306345137214    3.81959368266874    0.01428742330803
O          -0.92454336792830   -1.87865249742762   -0.63055657049655
H          -1.83461588654709   -1.58237401983818   -0.54221295705372
O           2.47198739166994   -0.06923478107829   -1.18026867485974
H           2.38233990989715   -0.86986512107122   -0.64140239985676
H           2.02176978266439    0.63937944157795   -0.69404144204727
O           1.76551643573155   -2.53031568486264    0.06469716255165
H           0.88219173057924   -2.59192006211930   -0.32528005316683
H           2.31363334530049   -3.16376160114346   -0.40147638855846
O          -1.85922132758030    0.73672843659220    2.52818764861130
H          -1.98252341777838    0.78818243744570    1.55447221009994
H          -1.77785619171590    1.64699158199709    2.81785241541512
O           0.07069476850170   -0.24530138135416   -2.40825978042784
H          -0.26938164922899    0.66054109195028   -2.33355331747715
H           1.02878128706197   -0.18673563725910   -2.21047885926456
H          -0.56665846137440   -1.29536569328832   -1.36120681255373
N           0.16644967380515   -0.67717876160742    1.49960037699917
H           0.48867208366211    0.21168468051349    1.00681606939113
H          -0.53214191049078   -0.36621363596867    2.20157064111747
H          -0.31861587244910   -1.22787871130537    0.73581173402404
H           0.94143537432543   -1.21266803580730    1.88023190341448
