    26
        -50.46371821  Gyration_radius:  2.58228925666 Dipole_moment: 1.807
 S          -1.16600898286916    0.96533690677339    1.10728102893591
O           0.15132624683430    1.45618120688443    1.51285313255074
O          -1.20348083318299    0.71982933975091   -0.33509514003558
O          -1.58202136092757   -0.20476032271477    1.85356382581219
O          -2.19983842107048    2.09486386823188    1.42093085891307
H          -1.78249007905925    2.91352155790608    1.08323399523460
O           1.05461988509424   -1.72911810417973   -2.72521434929489
H           1.76817530736751   -1.79811463741316   -3.36002769773515
O           1.84917242487762   -0.46931753670881    1.01042918972006
H           2.39569572219601   -0.59007005430447    1.78869164845071
H           1.19957557985503    0.23566354773147    1.24518286360714
O           0.90069054357086   -2.70988299467910   -0.25766582801177
H           1.32314889772389   -1.98275161732887    0.23880578320005
H           1.05995934177444   -2.50456194293957   -1.20681748555312
O          -0.40052821542433    3.91486003904489    0.73822404770690
H          -0.15054732552649    4.55774325554890    1.40564273439112
H           0.08082278098167    3.09104355756980    0.95115663225040
O           1.19048384265321    0.63926001740480   -1.54998671121510
H           0.29555103776970    0.81478338811726   -1.20037768274148
H           1.72501005076950    0.43091624003640   -0.77430044864804
H           1.06802338895148   -0.79452510720067   -2.39736920963425
N          -1.54122354536475   -1.85034395052689   -0.12646093845458
H          -2.29578013666760   -2.44701282355912   -0.44600249160283
H          -1.48705429719604   -0.94835890869388   -0.64732769558505
H          -1.68444486059058   -1.47512525784453    0.84782533880069
H          -0.56883699282255   -2.33005968690822   -0.17717538099940
