    26
        -50.46371813  Gyration_radius:  2.58209843664 Dipole_moment: 1.806
 S          -1.00018339718102    1.58686875375841    0.02756357118010
O          -1.44901787502572    0.93768494294252   -1.20449032780998
O          -0.75713685566037    0.59366847594486    1.07484121830293
O           0.15675401248468    2.43500794323500   -0.17530824301739
O          -2.16150981044871    2.51237389437426    0.51507728751194
H          -2.96668445643610    1.96081698364786    0.43831035497032
O           1.75878748100392   -2.64097081605598    1.20660540717672
H           1.84864367891906   -3.59254893033556    1.14900245946029
O          -3.92365384607544    0.72071767620083   -0.32218819931366
H          -3.08501814981552    0.55152631355117   -0.79519675511527
H          -4.55816408295425    1.00489140167211   -0.98379648652598
O           2.73644276511980   -0.75814546401835   -0.39784608439757
H           2.02320401161528   -0.71805540075384   -1.06368311400736
H           2.53573698326681   -1.54917089058123    0.15191372705738
O           0.52712685470273   -0.57274558386777   -2.01406227359271
H          -0.19711879148150    0.03632895627292   -1.73372193298298
H           0.66393835727725   -0.40336137399871   -2.94762211509800
O          -0.60356997376961   -1.95152750934100    0.23062643300794
H          -0.37819383428965   -1.77154963415855   -0.69004345450973
H           0.82527829426588   -2.43707338570299    0.94543420936188
H          -0.80640484372407   -1.07753424645266    0.61650428535130
N           1.80148095275532    1.03362346123408    1.22531354032191
H           0.90095787116101    0.60652240594776    1.53273079996735
H           2.31099736376676    0.32412965770255    0.58091129797279
H           1.42315419114934    1.81907932749151    0.63336806775655
H           2.37415311935881    1.34944306128093    1.99975632702662
