    26
        -50.47168686  Gyration_radius:  2.49111968674 Dipole_moment: 3.013
 S           0.54832108284041   -2.17436740339573    0.52434012318828
O           0.96084567390336   -1.35974671357306   -0.61620388478669
O           1.11051252637268   -1.64264942105775    1.76128566591959
O          -0.87609049336049   -2.38403367881156    0.57602534508432
O           1.21241869012977   -3.59658309454327    0.32353042573050
H           2.13349564014978   -3.39045216289223    0.44028872555882
O           2.14557620234407    1.05228983084281   -0.75067232937313
H           1.87431474684150    0.11981712152745   -0.85835155754707
O          -2.57052469943312   -0.45699677690743    0.24622869474639
H          -3.42478623799079   -0.75519560040052    0.56144597112178
H          -1.94156158150658   -1.20423126167272    0.41586459854252
O          -0.21342224318314    2.12700046296665   -1.67181802454764
H          -0.41360003984022    2.68403451366907   -2.42415200468949
H          -0.53374641854960    1.20732708569119   -1.90756192627432
O          -1.23241100450646    1.83047364381335    0.86895364164854
H          -0.95049488975270    2.11910012645662   -0.01807168562665
H          -1.80193187084649    1.05250499657468    0.71539599395756
O          -1.02102918489346   -0.31409381750955   -2.07167190630178
H          -1.77193729396656   -0.40457866492652   -1.46694086445699
H           1.44796481308049    1.56598555048541   -1.19692113291834
H          -0.29298472275486   -0.81076122768359   -1.64496429777161
N           1.12878449573697    0.96115093602273    1.66734532137053
H           1.10106454420931   -0.09116318709841    1.80185735527174
H           1.68314344361919    1.12306724095281    0.77212986395238
H           0.14632837506206    1.32402145878102    1.48559451399667
H           1.55175043631562    1.41808005270000    2.46704338421892
