    26
        -50.45914438  Gyration_radius:  2.44226355715 Dipole_moment: 7.062
 S          -0.33184981749161    0.43726888958171   -1.93376287974869
O          -1.67800711878858    0.14832343590897   -1.51897893989832
O           0.27273314136708    1.54914494606927   -1.19230048062542
O           0.55816314957299   -0.71544267036816   -1.94429472685526
O          -0.41492334255079    0.91633069505236   -3.44209610377766
H          -1.23882622074065    1.39180078877760   -3.48775278538946
O           1.44277990587371   -0.14706630585426    2.10332055917433
H           1.88321470847900   -0.47621657883707    2.88736454040730
O          -0.99557587900916   -2.51528410871193   -0.68808073652701
H          -0.38659090356732   -1.98464053841187   -1.22872049924884
H          -1.86141676959415   -2.12776019115031   -0.84586904785609
O          -0.25877639640910    2.11223544795240    1.45201194503230
H           0.35724472051556    1.47936277955423    1.84318755043423
H          -0.11995635658947    2.07444880341638    0.49278887748936
O          -2.33904556046429    0.36182051185197    1.14784046241618
H          -2.26211344162267    0.30204298082926    0.18186001308330
H          -1.80284147648976    1.13622545507005    1.40053021765459
O          -0.64000383219564   -1.56181313889867    1.81248781445156
H          -0.68056151202408   -2.07680496400917    0.98034591965143
H           0.60762346472478   -0.73399130136856    1.99085762041966
H          -1.37029780338798   -0.90100082832080    1.71981534129960
N           2.30562617306233    0.26202509564263   -0.33395253605817
H           2.09684480274080    0.03183021242825    0.68340958973844
H           3.28696885747987    0.45065956999686   -0.50579742643995
H           1.90706519346850   -0.47354862015533   -0.96110619963725
H           1.66252230364314    1.06004967395744   -0.61310808919478
