    26
        -50.47126113  Gyration_radius:  2.42924020162 Dipole_moment: 4.306
 S           0.70890453022959   -1.77554428742615   -0.00891018382695
O           1.97312745159374   -1.71046910680169    0.70944991228380
O          -0.41482208092449   -1.48168598181916    0.87432810259485
O           0.69105234352903   -0.96561773360357   -1.20609652450678
O           0.54069080954462   -3.27602466063506   -0.47099331838471
H           0.79278150134979   -3.75437514469929    0.31166392521608
O          -0.97336025766871    2.22496461931165   -0.58316756124359
H          -1.52669372371510    2.96363415215238   -0.83826346622932
O          -2.93657519756576   -1.41898912644797    0.03219033362608
H          -3.43835111943863   -1.05855205088669    0.76525750703724
H          -2.02669023784135   -1.55653462337740    0.36655144374294
O           1.60197216689242    1.58416894920457   -1.29064548280728
H           0.73388408105868    2.00460906614044   -1.14283781463046
H           1.38595704703678    0.66402913177538   -1.52859401484281
O          -0.36852325761095    1.02311788753291    1.80187346816230
H          -0.50339515834880    0.08230790321537    1.56553640303992
H          -0.69704798934572    1.53403788227528    1.03799636451345
O          -1.69979879085192    0.09363317821905   -1.86057664677503
H          -2.32386864203831   -0.43520108392891   -1.32882756053939
H          -1.31076652431276    1.43042199658768   -1.09873631881845
H          -0.85026319183108   -0.38049910813716   -1.79281158301369
N           2.16125094237401    0.85760114259880    1.15925919212163
H           2.11306442271287    1.26925164201199    0.17491403211739
H           1.20678341130593    1.03911281800117    1.60066266182190
H           2.23347535775026   -0.19094221557006    1.04438893866854
H           2.92721210621570    1.23354476427354    1.70638819071414
