    26
        -50.46361290  Gyration_radius:  2.49257918589 Dipole_moment: 6.643
 S           0.28950119654443   -2.29014230463875   -0.46007763945374
O           0.53023078048492   -2.06363200024890   -1.86530206976859
O           1.50619630207208   -2.15510704098778    0.34258142079880
O          -0.79003239708556   -1.49220655339088    0.09680711322623
O          -0.16661543535660   -3.80390399843145   -0.33004250796336
H           0.35732604043876   -4.20961143525040   -1.01239550371720
O           1.20629883942392    1.91844148626469   -0.41238703584702
H           1.83197778173143    2.51937932008998   -0.81846471964577
O          -2.19145523695626    0.39788209846582   -1.23412690066510
H          -1.85165056167792   -0.41111679675017   -0.81077463768547
H          -2.12187592801165    1.08600874817461   -0.55749959031645
O          -1.28591770898092    2.32344854142572    0.65054826060096
H          -1.58126993363325    3.22850024708093    0.54548981384770
H          -0.38849348854639    2.26619590011649    0.26714409490426
O          -1.03395272054698    0.05347734545236    2.25655513077925
H          -1.14537204979805   -0.63774674497247    1.57219139798377
H          -1.36495902518784    0.86994656660883    1.85282444093758
O           0.25216029879196    0.53112958102319   -2.31203624611633
H           0.85432153051030    1.33679920465986   -1.18135518871268
H           0.45680792954850   -0.42604528548560   -2.25250257426632
H          -0.71634417271816    0.57111699501926   -2.14259730802389
N           1.49608621452522    0.09434808299186    1.57980373794994
H           1.54041393134398    0.83264741041977    0.84908089098659
H           1.56076466077136   -0.86316450829649    1.08843246298947
H           2.23296916633775    0.19936113957598    2.26764555068433
H           0.52288399597586    0.12399398108630    2.02045761649341
