    26
        -50.46214911  Gyration_radius:  2.46077405307 Dipole_moment: 6.824
 S          -2.01225802226863    0.25533985839591    0.21263320475879
O          -2.04805558202814   -0.95670503363888   -0.60946949258587
O          -1.29591520114348   -0.01326966219648    1.45506214722741
O          -1.51455772790387    1.40921585279834   -0.48388238069034
O          -3.51197548253215    0.55534543471750    0.60472435757767
H          -3.77855799885532   -0.27925244221833    0.97330917123741
O           1.89863511975392   -0.45730150389890   -1.30419275633430
H           2.73852895874444   -0.47417341834368   -1.76389445146349
O           0.78407828487545    3.07678488671309   -0.13705669880735
H           1.17337917818925    2.45446825329782    0.49931263518418
H          -0.16485748949566    2.89822518498747   -0.10669573608318
O           1.32616605886009    0.69024711419021    1.21663938321926
H           0.35948161725220    0.58256484703616    1.27895241405108
H           1.59774325995604    0.30877114283653    0.36843590543004
O           0.48837681797293   -1.80863933847326    2.29252372085209
H           1.21387366963079   -1.17257487589365    2.36085686229235
H          -0.30769590223742   -1.24287328481771    2.26519240958250
O           0.49378825611946    1.45335324541965   -2.26929853836838
H          -0.39393562928503    1.32420829149573   -1.88933937375978
H           0.82889695552136    2.21345640744525   -1.74791791040728
H           1.34834041891400    0.26889508043260   -1.75059216118711
N           0.16541903833124   -2.24300327663741   -0.30207077819500
H           0.14072697860294   -3.19501288489869   -0.65079738088259
H           0.89478046595163   -1.67992327611452   -0.79087318271494
H          -0.78037202047388   -1.75539940711183   -0.46503480329179
H           0.35596598745920   -2.21274720549300    0.74347343335949
