    26
        -50.46361290  Gyration_radius:  2.49265257512 Dipole_moment: 6.642
 S          -0.36596689021019   -2.32186617556588    0.12858163177328
O          -0.39887914859195   -2.48079815597320   -1.30591011247223
O           0.99605948433468   -2.36604730833420    0.66313324526681
O          -1.07624890534605   -1.15129919486838    0.61588783574307
O          -1.12307947405346   -3.58044076816443    0.72805357603834
H          -0.87496316157936   -4.25358735973773    0.10349359113896
O           1.49934098463693    1.36308993643690   -1.09552803306439
H           2.14138967049172    1.66012294339910   -1.74133010741677
O          -2.25574122019761    0.72559923915563   -0.93127365683899
H          -2.02971398308594   -0.03558586682077   -0.36676948554534
H          -1.87671735303339    1.49477871446792   -0.48305491337367
O          -0.52570117824234    2.67582117574941    0.20106122363418
H           0.22427882170656    2.28582374969300   -0.28993354903760
H          -0.61746917365070    3.58185729444924   -0.09565023088628
O          -0.46172503668522    0.82823857754691    2.29436431742281
H          -0.88195036951923    0.06606898257446    1.84597786935237
H          -0.67392715313205    1.59813185098721    1.74546355569613
O          -0.15412314599915   -0.07281755792209   -2.37899095073683
H          -0.17152321418329   -1.01254822248967   -2.09934369793470
H          -1.02304629252072    0.27471953886942   -2.07470339505996
H           0.85766063857714    0.75332013977115   -1.61526662247164
N           1.79062590441932    0.00615744856297    1.23958070229977
H           1.84249102714119    0.52606166387641    0.34063067303891
H           2.66605856864448    0.04446645032236    1.74880418491277
H           0.97534062536313    0.40383335781814    1.80452568279486
H           1.51752996471636   -1.01310047380280    1.01819667572597
