    26
        -50.46361245  Gyration_radius:  2.49260976163 Dipole_moment: 6.621
 S           0.38610080752611   -0.31596554226534   -2.30070420770633
O           1.44706588854061   -1.26971941807925   -2.07977316289858
O          -0.76353932388831   -0.48943303379246   -1.42853245118062
O           0.86315801022391    1.06740103489117   -2.26572093879148
O          -0.13444344645514   -0.57327583425331   -3.77709538033824
H           0.67088723664155   -0.83889089394147   -4.20784890658376
O           1.30801958793718    0.52000701069242    1.82437326281976
H           2.08360132303784    0.61495111989985    2.37841740487765
O          -1.28619769107143   -0.13971806958614    2.40882020997403
H          -1.40431893286298   -0.35763398629915    3.33399845063536
H          -0.34704882252175    0.10264389641757    2.28698984689199
O          -2.19489910167283    1.15541962555767    0.10683645060248
H          -2.16539740964852    0.68037760544550    0.95091684775036
H          -1.89994543543282    0.50783854993628   -0.56571810501706
O          -0.94974502086348   -2.28866782163056    0.57993578133730
H          -1.27185092727066   -1.67235180190092    1.25274450522864
H          -0.98555347914251   -1.79270521630176   -0.25789258504070
O           1.64408333024433   -1.64041915407861    0.53452828614039
H           1.71673740262666   -1.52380057853396   -0.43637786945368
H           1.46991017312603   -0.33460102140563    1.27943344551151
H           0.77910357290782   -2.09566404074816    0.64817080539387
N           0.21634698842642    2.16820447224972   -0.03843192856956
H           0.73885337745247    1.66003558040396    0.70306990193468
H           0.51735276233653    1.76471902243886   -0.99184366153201
H          -0.81926559092295    1.92380329429291    0.06080205150930
H           0.38098471072805    3.16744520058677    0.00090195650385
