    26
        -50.45880423  Gyration_radius:  2.39815545018 Dipole_moment: 6.382
 S           1.20607491622420   -1.02127726909074   -0.75874513212001
O           2.65297121556547   -0.98185475805443   -0.57213261748840
O           0.51285343088660   -0.89050191523601    0.49937079337193
O           0.75817878370209   -0.08644392919936   -1.77535958159062
O           0.84110706547772   -2.47456748915178   -1.29212860298049
H           1.30602217591594   -2.57955534453021   -2.11807754740917
O          -1.73449275125800    1.89107270278799    0.38819814868782
H          -2.29547139836376    2.65107286929742    0.22829486723328
O          -2.07820027693653   -2.07430789850918   -0.30970197477964
H          -1.14707715464939   -2.30735421557129   -0.37680168790005
H          -2.18437128123663   -1.67425401929415    0.57493911829449
O           0.86369336026982    2.06450962108279   -0.19388220799984
H           0.85351495204699    1.41374132557695   -0.92476117600419
H          -0.07124528319434    2.08466671646396    0.12732636358757
O          -1.75552703710027   -0.48485373033425    1.93770078692938
H          -0.87249948537823   -0.67023923555276    1.58511764316170
H          -1.96075943154166    0.40166563088619    1.61111447888714
O          -1.92436193850880    0.26379851445954   -1.62646361860659
H          -2.17761958466139   -0.60807987177025   -1.25193405651034
H          -1.87781843460712    1.27437924332880   -0.39321126652717
H          -0.98363028653760    0.16872058388516   -1.85539125803974
N           2.44395580744163    0.74088260851375    1.33784807088531
H           2.71401164692243    0.00547572241193    0.60430090963970
H           1.77301347445008    1.41011080526188    0.77206714756068
H           1.89088230948317    0.26401706953821    2.04722265869512
H           3.24679522557647    1.21917626280211    1.73508973103013
