    26
        -50.45880465  Gyration_radius:  2.39824487846 Dipole_moment: 6.392
 S           0.89425794562716   -1.45506553976090   -0.38665248097733
O           0.60243643860371   -0.16369586875242   -0.95894109510455
O           2.33320988789949   -1.67512177332791   -0.28359469519067
O           0.20915329020469   -1.70943084835855    0.86799613372026
O           0.33026257672363   -2.51596457174668   -1.42916099573475
H           0.52448236000594   -3.37554408698809   -1.06514048071081
O          -1.46934747623381    1.72878297934339    1.25883811274316
H          -2.01992409222595    2.12686180114696    1.93426342332230
O          -2.16311412327757   -0.73040972335081   -1.87338668859914
H          -1.99277364020715    0.22654100184072   -1.96954491712007
H          -1.30193380468095   -1.15389530115485   -1.94259389468398
O          -1.14610238456486    1.82683475221086   -1.55817405874880
H          -1.39915368745214    2.05484507631444   -0.65336712343123
H          -0.40710399835328    1.20983750017683   -1.45047364508510
O           0.85468068936239    0.63284756917544    1.97877821259977
H           0.05464508730707    1.16092057614717    1.73628835353459
H           0.60719537274584   -0.29012046444359    1.76742059063254
O          -2.30028642309592   -0.69034099302420    0.81066099453341
H          -1.85761141423097    0.81652128829776    1.08998908734608
H          -2.47119654191814   -0.74776502757963   -0.15472829956947
H          -1.46985078072063   -1.17975103633093    0.94207441278105
N           2.75828684918408    0.81058932669743    0.26392844067307
H           2.41646306266329    1.30965417164221   -0.55503733637649
H           2.77365394807844   -0.23244970310533    0.01112141852213
H           3.66049171487166    1.15734926066666    0.57534123108440
H           1.97917917366306    0.85796965425982    1.04409530984563
