    26
        -50.46254328  Gyration_radius:  2.4916213644 Dipole_moment: 7.211
 S          -1.10222505635611   -2.09701029701520    0.15821822407459
O          -1.63919520280841   -0.73648034945872    0.11027289082959
O          -0.55153802786962   -2.46044009423279   -1.15075216890949
O          -0.18897901891482   -2.31195698182507    1.24352011699092
O          -2.34143455372806   -3.05610440121643    0.37949201623743
H          -2.83235471472400   -2.92764486142804   -0.42531563618024
O           2.21935529599713    0.65610148713165    0.13750215276682
H           3.16489928676324    0.65046675043568    0.28994560598019
O          -1.22778520827785    1.17360045505431   -1.69460173931424
H          -1.58297017093554    0.52172507284052   -1.05252756520388
H          -0.87723526875823    1.90044009093400   -1.15858778994279
O           0.37088982972297    2.67193363637254    0.02538542969105
H           0.72549971666411    3.50657994472424    0.33366231514183
H           1.09773477313390    2.01910496085801    0.06277402026446
O          -1.08263459480404    1.16446235470934    1.94628161630749
H          -1.43010088577781    0.44564397032711    1.38588002490326
H          -0.76468488376563    1.83926479656905    1.32984907365049
O           1.15003152421856   -0.26102986924352    2.23987410872943
H           0.36724074306427    0.32244475103975    2.37172567606794
H           0.75183790141402   -1.12028543148339    1.98791241239058
H           1.80467628890960    0.26051458942016    0.99541502140002
N           0.82351649682039   -0.43243140142728   -1.92227338808034
H           1.31615393612848   -0.56306444646987   -2.79868221406789
H           0.03784554619857    0.28880502847878   -2.00550827972439
H           0.32521008290468   -1.33897880841637   -1.62310559205952
H           1.46624617495234   -0.11566096679953   -1.16635634180339
