    26
        -50.46361285  Gyration_radius:  2.49260480675 Dipole_moment: 6.643
 S          -0.06222492055599   -2.18163533654938    0.88132021909498
O          -0.34291234173844   -2.78131576849425   -0.40146113441788
O           1.37128054945847   -1.98275720011036    1.10139489712899
O          -0.80172792086913   -0.95829096039550    1.14327304767144
O          -0.54081001164191   -3.23001720863344    1.97145995795517
H          -0.33111708217999   -4.04999647909152    1.53726415453548
O           1.10048550068879    1.03296947689811   -1.74061004821848
H           1.57430121004935    1.14720814575385   -2.56519888656497
O          -2.45713700117715    0.27351043413894   -0.60281829732309
H          -2.09429631574552    1.16359516500315   -0.49160892370381
H          -2.04324184994607   -0.26005547437389    0.09949945638002
O          -0.78949466217339    2.57170584256682   -0.48910189360916
H          -0.10267894879616    2.09012430133451   -0.99104957658402
H          -1.04334921758089    3.33135709072897   -1.01434303229380
O          -0.12271040771223    1.47748427117678    1.99262255611901
H          -0.52169132434239    2.02453087943906    1.29937005527895
H          -0.52690943700507    0.59182838490617    1.88905669590317
O          -0.58190266496213   -0.81999456621502   -2.16371619804665
H          -1.41405002246676   -0.44280303704241   -1.79806198047368
H           0.44963968118751    0.25734707831927   -1.90968474215246
H          -0.43745915842697   -1.62498334185417   -1.62264858454739
N           1.97521543141805    0.49070080010967    0.77309135368196
H           1.79830438240152    0.70643470712985   -0.22858920675726
H           2.91932407059263    0.73335506740686    1.05047237324343
H           1.23817148180466    0.99981499864064    1.35570655529790
H           1.78699097971928   -0.56011728079284    0.92436117240269
