    26
        -50.46361286  Gyration_radius:  2.49257471663 Dipole_moment: 6.643
 S          -0.24350577829300   -2.29524655369006    0.46010916201538
O          -0.33845456698447   -2.64815987242948   -0.93640774672767
O           1.14362631195509   -2.20959889791292    0.91990572815875
O          -0.98568105823485   -1.10047826814966    0.82574488473051
O          -0.90760192410488   -3.49169718470451    1.26270422894305
H          -0.65119013640538   -4.23343607740143    0.72514484642625
O           1.37252684682928    1.26318068643069   -1.35098636697962
H           1.96700485500940    1.49643537286891   -2.06490942813817
O          -2.33173854895301    0.49361466235624   -0.89265384561004
H          -2.04015406881268   -0.17288191723422   -0.24455864589933
H          -1.96977621877020    1.33224182848211   -0.57332299515150
O          -0.64846331339137    2.65274903163791   -0.13062553867528
H           0.09492210369535    2.23211222128815   -0.60615562738836
H          -0.80184729180869    3.50409946595115   -0.54178160485728
O          -0.38675356178800    1.11493575442446    2.18548959697812
H          -0.79123951344129    0.28160413012861    1.86862761780217
H          -0.66409824372066    1.79243036015726    1.55050543960818
O          -0.26850330907971   -0.40294422359241   -2.33749881883171
H          -0.22455718501084   -1.29530655223588   -1.93323164983400
H          -1.13744988276037   -0.05482195367597   -2.03379905801627
H           0.73700379578196    0.56174266179152   -1.74852384445282
N           1.84712566305769    0.25098756861756    1.12481137259460
H           1.61429268136343   -0.79962213614314    1.05871920230746
H           1.82754340515801    0.64457745622411    0.16261150692752
H           1.04273985725257    0.68768305508775    1.67647032377825
H           2.74422908143719    0.39579939171116    1.57361128029065
