    26
        -50.46603971  Gyration_radius:  2.42514172496 Dipole_moment: 5.926
 S           0.16787881421164   -1.94918929806053    0.61668103161490
O          -0.65777609351725   -2.67267375257912   -0.31052278077417
O           1.33438054901695   -1.31309310684771   -0.00913247240082
O          -0.53411076355937   -0.96788453894661    1.42387467965730
O           0.74851572445073   -3.02955053038706    1.62074644978542
H           0.52510440279142   -3.82707126673855    1.15403841024800
O           0.43210417101529    2.08086038668602   -1.35114515315493
H           0.45677399508947    2.76778393664963   -2.01731400517029
O          -1.95251120823708   -0.90651455102889   -1.90356228578139
H          -2.24396775742682   -0.22580855180233   -1.27783209153342
H          -1.66035521640000   -1.66491410359664   -1.36744549749959
O          -1.77031959271153    1.06489639944439    0.13290725052236
H          -1.08004409700076    1.48182647655209   -0.40354378460697
H          -1.37620216111981    0.27920790453458    0.55393533824150
O          -0.35701137559529    1.40579224888410    2.62116082145681
H          -1.08249769464645    1.76885107439262    2.09328329365818
H          -0.50914413218807    0.44496285854916    2.59691931636676
O           0.57280542036596   -0.25065113956261   -2.39904048395746
H           0.95102802473538   -0.78040565473552   -1.67632289310244
H          -0.37684485365262   -0.51832543056195   -2.43997032504644
H           0.50406259711798    1.19843798414426   -1.84658802188916
N           1.60455463446882    1.13591885140921    0.84897478361350
H           0.90138506030369    1.30730985112432    1.62885345445754
H           1.30264037001135    1.68165950440367    0.01069551112068
H           2.54660555720306    1.38184006635203    1.13290195981475
H           1.55294563527160    0.10673436172003    0.56744747436083
