    26
        -50.46361291  Gyration_radius:  2.49260834262 Dipole_moment: 6.639
 S          -0.12162108753731   -2.32311715717028    0.35856743512713
O           0.05683203390959   -2.63228136751590   -1.04013729249954
O           1.15245177556116   -2.14169283388445    1.05608103246747
O          -1.01600317156993   -1.20641157507843    0.61366681056480
O          -0.80883040105182   -3.59761465893289    1.00663177547392
H          -0.40496588060268   -4.29597555705169    0.50267325791945
O           1.47384795489327    1.41957561060725   -1.05854887259801
H           2.16157958732763    1.72568529051635   -1.65084906124555
O          -2.17362124898166    0.33635082128838   -1.27972187466927
H          -1.94325331810191   -0.32791541249460   -0.60519827473650
H          -1.94651731287133    1.18912597953785   -0.88290603829966
O          -0.84136225711220    2.59509592132250   -0.18455189524585
H          -0.99395650486912    3.44537984615884   -0.59819885320264
H           0.00698800645862    2.25395200416413   -0.53027864028769
O          -0.85677055945053    0.99823305283630    2.10676707339171
H          -1.07660990872335    1.67423530683137    1.44816904701055
H          -1.12632893556620    0.14722066046780    1.70478023793146
O           0.17976335726216   -0.33757331444674   -2.35506320159002
H           0.22833798682860   -1.23797002519784   -1.96969324185921
H          -0.75545221237699   -0.07182537824217   -2.20293537785939
H           0.98034712443538    0.68373348593899   -1.57692425547166
N           1.59406175881074    0.35818429561887    1.43903206009217
H           1.46784244881734   -0.70459042557576    1.30865340794955
H           1.70907877557908    0.78486338589894    0.49784718127521
H           0.67109670314444    0.70733418653441    1.84918580162787
H           2.38306529578697    0.55799785786764    2.04295174873298
