    26
        -50.46361290  Gyration_radius:  2.4925382089 Dipole_moment: 6.641
 S          -0.46379873705359   -2.28507293340905    0.32067626671969
O          -0.60512429751017   -2.54113484955132   -1.09293450330887
O           0.92909273271434   -2.36188408198498    0.76422741853661
O          -1.08317513554943   -1.04893908059862    0.76824742423164
O          -1.23393862195848   -3.45874771036054    1.05955250430410
H          -1.06154198000852   -4.18600758494261    0.47123940620626
O           1.48152220400550    1.20586430221670   -1.28712908514780
H           2.09158019489798    1.42381129311822   -1.99269578016081
O          -2.27750585632014    0.77213451036203   -0.83290023121041
H          -1.83377577260949    1.55030414202023   -0.46709257085465
H          -2.04853047235205    0.04155880602310   -0.23031822786650
O          -0.38721477938398    2.70640809439240    0.04017754422575
H           0.30863107722715    2.24608912944267   -0.46924959324422
H          -0.45861454112113    3.59291273938162   -0.31533900690407
O          -0.26326241655704    1.00889692980922    2.25404242661958
H          -0.47690814962339    1.74834900094069    1.66524929887120
H          -0.74865910389031    0.23997140505446    1.89122645953902
O          -0.31973801848901   -0.23021431082112   -2.35315814362780
H          -0.36194995286491   -1.14610629803540   -2.00537692883214
H          -1.14871072506070    0.18163209307410   -2.01906978505285
H           0.77856449955232    0.59477610266466   -1.71856872273226
N           1.86992224895442    0.00068960550195    1.11609103518965
H           1.53519058011691   -1.01607071618322    0.98691952139116
H           2.77928637662675    0.02897863627670    1.56264033679261
H           1.88360804746802    0.45407450292029    0.18047133913241
H           1.11505062878803    0.47772626268692    1.70307159718153
