    26
        -50.46361278  Gyration_radius:  2.49267447182 Dipole_moment: 6.634
 S           0.52156530960460    1.83092174169056    1.38450233258173
O          -0.81058392879938    2.37992869477599    1.29536030542790
O           0.56226025040294    0.38763523747452    1.55042713793931
O           1.37366172163670    2.25290077774071    0.27157849012178
O           1.16371044039930    2.44573964359696    2.69815435903050
H           0.77298179147709    3.31300453946056    2.70070346892104
O          -0.95594321172512   -0.26236448884413   -2.07929670157967
H          -1.47146609760756   -0.07398247349571   -2.86430158271386
O          -1.58725820128041   -1.25134898259512    1.54689905571290
H          -0.83740120827970   -0.66789440649267    1.76264977199979
H          -1.23137113584571   -1.90108431572514    0.92445421128928
O           1.88497857915403   -1.58149338290446    0.33104086654471
H           1.15142961417179   -2.17192583011475    0.10209107344729
H           1.51806941765823   -0.95474713861461    0.98769980309528
O          -0.50052001636621   -2.59171819933673   -0.71127925266065
H          -0.99500960996357   -3.32719028988444   -1.07445296376376
H          -0.69950517185823   -1.80949478954400   -1.26279883497694
O          -2.27592916988933    0.70575877302175   -0.13955557387203
H          -2.27345661271983   -0.03179861808167    0.51195677793613
H          -1.81682674308495    1.43176731515231    0.33352072127070
H          -1.47804138006058    0.16524031362653   -1.30565973540451
N           1.61078228732318    0.34160178581847   -1.42584463785339
H           1.54991503685531    1.18281667781752   -0.75409392879470
H           1.86243274040148   -0.49601135727039   -0.81160830314190
H           0.66297595777533    0.17724839784772   -1.82040638672009
H           2.29854936047771    0.50649036488042   -2.15174047388925
