    26
        -50.46361286  Gyration_radius:  2.49257321404 Dipole_moment: 6.648
 S           0.16811542588760   -2.34501546419222    0.11051601480569
O           0.29258278133318   -2.48797587481293   -1.32057871637429
O           1.45458093842464   -2.08355717712263    0.75829608854536
O          -0.82967803343755   -1.37480105973601    0.52903157978267
O          -0.32758539305380   -3.75131487247779    0.65199638475193
H           0.12220646933213   -4.34232054054507    0.05761977814627
O           1.23124057480996    1.68530300198372   -0.97243222640878
H           1.84036373184865    2.13063503251265   -1.56246354108427
O          -2.27493516674697    0.20102043435507   -1.12509462112995
H          -2.12272938843542    1.03063139332600   -0.65101591480675
H          -1.92778873249650   -0.49514270967272   -0.53853507158329
O          -1.14225038569041    2.48040961543293    0.14050775080828
H          -1.41260567685286    3.34734674505331   -0.16394778578700
H          -0.28454096973768    2.27973674916821   -0.28345287357919
O          -0.83097283650976    0.66945786925651    2.24251771758507
H          -1.16695035263634    1.37735417426144    1.67224676912566
H          -1.02604273461903   -0.16261496454567    1.76499058564827
O           0.06773458815119   -0.07402935926796   -2.38457075657757
H           0.79347729692798    0.95176574231998   -1.54160793511839
H           0.24312790172244   -0.99639027846819   -2.10146897670090
H          -0.88027195438543    0.06068003876495   -2.15761432915122
N           1.63010568199344    0.39931625579153    1.38691229821889
H           1.61840926550417   -0.65224369476819    1.14907310866300
H           2.42763888085656    0.63057418394838    1.96797487211557
H           1.63578427920116    0.92952526119472    0.49250705478537
H           0.70098380861062    0.59164947824172    1.87859272532026
