    26
        -50.47150015  Gyration_radius:  2.42646707642 Dipole_moment: 3.451
 S          -0.53636384787706   -1.52434781997372    0.96398055854929
O           0.12595313612137   -1.70644799316650   -0.31905336496430
O           0.39909414655072   -1.66256819804472    2.06948990554131
O          -1.30264958249048   -0.29582898766745    1.02515876538399
O          -1.58489386499541   -2.69654868495211    1.10713375149417
H          -1.02718661993823   -3.46658190231249    1.13680159909030
O           0.67458309070390    1.72133208720489   -1.68807517140586
H           0.73709938560914    2.32449918350564   -2.42916329189565
O          -3.22159506404303    0.13625811211954   -0.77208982321937
H          -3.66727557279783    0.94140557973747   -0.50410327120038
H          -2.61637509257536   -0.09770551531545   -0.04034405154076
O           0.06489705154190    2.00909166292082    0.96471985732185
H          -0.58700987687752    1.28538134509123    1.04340898255820
H           0.24819590126793    2.08250461406041    0.00901199734302
O           2.35701604158150   -0.28094737600461   -0.84079264651016
H           1.92876660115121    0.47724541277142   -1.28037313970979
H           1.65547996774636   -0.95888611332379   -0.78668727318813
O          -0.96687996937912   -0.19928119339659   -2.26420827607102
H          -1.87331204417151   -0.04565105232789   -1.94094437814507
H           0.00601689171953    1.02050176000912   -1.95405635499680
H          -0.59776119761971   -0.86969607357047   -1.65879821657427
N           1.98689529122547    0.37206687109482    1.66048823020972
H           1.29845560907186    1.17514426132935    1.52205629608128
H           2.35362946450331    0.12744471036013    0.68719564726764
H           2.72586617149428    0.59562865307883    2.31719825400745
H           1.41935396246004   -0.46401333322131    1.97204545460107
