    26
        -50.47150016  Gyration_radius:  2.42644771249 Dipole_moment: 3.452
 S          -1.65142131239064    0.07874964577727   -0.89829391954620
O          -1.61071947742848   -0.95076325198545   -1.92533092907895
O          -1.60948929898784   -0.49967319390729    0.43650484758915
O          -0.64801696540452    1.10648259860762   -1.09109687331629
O          -3.04707546494085    0.80435737422763   -1.03802164585475
H          -3.66053197240091    0.07974015986894   -0.97915130088966
O           1.90917716994692   -0.10596134798944    1.61590846958758
H           2.54303590791120    0.03746477196488    2.31918617410413
O          -0.60919958578562    3.21437085952800    0.53800454747123
H          -0.72368828437180    2.51277635472827   -0.13366452117167
H           0.05162576183348    3.81434622221210    0.18870496714177
O           1.91892823652992    0.33357753127184   -1.08565795397100
H           1.05651777110563    0.78667654085639   -1.16226051966309
H           2.07837607337960    0.25233893745472   -0.12630779776450
O           0.33455365068098   -2.27883611635915    1.01757083801328
H           0.98654707071926   -1.64857838114510    1.37689048386484
H          -0.49427144255417   -1.76471372610860    0.95912330983882
O          -0.32200351805716    1.07517749266170    2.20036345674114
H          -0.91087921289908    0.50923083249148    1.66634190710391
H           1.08076632247245    0.39702952184928    1.87980569369666
H          -0.40656663724126    1.96242547269968    1.80615811426131
N           0.76329821964023   -1.97214372436280   -1.54013806396091
H           1.12780391000311   -2.68871606961188   -2.15737341798196
H           0.65942972333945   -2.30480281479910   -0.53008977768376
H           1.38224068097650   -1.10417678585568   -1.50170651687271
H          -0.19843730611493   -1.64637889403012   -1.83546958169339
