    26
        -50.46603978  Gyration_radius:  2.42519517373 Dipole_moment: 5.950
 S           0.96169789231006   -1.66293010824851    0.71846762105476
O           0.25160099499513   -2.75376066505486    0.10982218207911
O           1.66759771097760   -0.81126012818327   -0.24771799907075
O           0.16287195696131   -0.82702691147484    1.59629692695175
O           2.08640572960296   -2.32174837891471    1.62037513475086
H           2.05580453153634   -3.21510493220492    1.29653019134940
O          -0.62480905356883    1.84697127222833   -1.59192286049687
H          -0.98737747781840    2.38195228555494   -2.29804080433148
O          -1.89442360761084   -1.78365265021259   -1.22854395403505
H          -2.25364168077151   -1.12916174192267   -0.60976983581487
H          -1.24753445986093   -2.30946548759164   -0.72569306594655
O          -1.95426098132609    0.46066199345133    0.50536658633315
H          -1.58622749011329    0.97660074164767   -0.22702357191112
H          -1.22974411837306   -0.07539995530564    0.87609991863844
O          -0.22183667230706    1.65197865079747    2.48854123563335
H          -1.12847784891181    1.68086425289481    2.15188986824352
H          -0.03739664083936    0.70075364621531    2.58171123846967
O           0.07398720415819   -0.46832887277109   -2.43078109134640
H          -0.70927367451657   -1.02151216879355   -2.19418630815114
H          -0.36526666523414    0.95922145387511   -2.00918112084857
H           0.76184404038978   -0.72161920333674   -1.79156878888861
N           1.26260499548265    1.71001567438004    0.28522118371928
H           0.61130423796704    1.98082734327990   -0.48569882845230
H           2.10003138375080    2.28205322870757    0.28293606896138
H           0.73704253712414    1.78580458772463    1.20693856680311
H           1.50747717597257    0.68326607327796    0.11993152628945
