    26
        -50.46603987  Gyration_radius:  2.42523793454 Dipole_moment: 5.950
 S           0.38536188532471   -1.08832094528760   -1.69536878545714
O          -0.77639163781814   -0.86588405753364   -2.51124831353617
O           1.17246235768797    0.12762994480940   -1.45213504098921
O           0.12611855577097   -1.74936942982012   -0.42915509060663
O           1.32573760510322   -2.05580811049792   -2.52722400232648
H           0.90786116861905   -2.00077041660042   -3.37935737130108
O          -0.16528713971743    1.99876550432403    1.52073059408598
H          -0.42365000388835    2.79844495348840    1.97902269083925
O           0.85426952603760   -1.92988906178951    2.12573275232326
H          -0.02105045491667   -1.66383422207274    2.44068442823078
H           0.68585930456849   -2.27562592696713    1.23157057973398
O          -1.51922466709255   -0.49328928903843    1.31594467109882
H          -0.99217968294740   -0.94775412644688    0.63371916555942
H          -1.12177453936783    0.37903720026172    1.45442152825445
O          -2.60736611926585    0.53764423820384   -1.09183118454757
H          -2.58121684180357    0.10476482389602   -0.22450602061645
H          -2.12443461281624   -0.04591582944906   -1.70343552194833
O          -0.53884032436821    2.19968283491730   -1.00363677871101
H          -0.33315699248499    2.16682751650844    0.53422542570196
H           0.10722264261253    1.56596957029573   -1.35986052270540
H          -1.41612698250929    1.76123592913114   -1.12055396288922
N           1.83704822764206    0.29950274612556    1.06459553137208
H           2.81253324079010    0.52260674761644    1.22943361235475
H           1.55017858665475   -0.59830056619353    1.55771454087488
H           1.20781686242746    1.06706472291534    1.39128044130332
H           1.64823002573841    0.18558527918566    0.01923664391355
