    26
        -50.46254373  Gyration_radius:  2.49149743803 Dipole_moment: 7.193
 S          -0.80208193169034   -2.23397846110787    0.05495396676876
O           0.51559656379076   -1.68573529587194    0.37923472875563
O          -1.77134740917910   -1.83812733161414    1.08072807022437
O          -1.23083625501344   -1.93778922974570   -1.28171246840490
O          -0.66948607723201   -3.80627235746678    0.17656028953577
H          -0.46918379882496   -3.91344114553478    1.10047767442980
O          -0.86869491850749    1.99378520932961   -0.80598315176262
H          -1.42076963996072    2.63207713281359   -1.25885738081564
O           1.15755091382049    0.24996773925275    2.08691090000974
H           1.07912914476721   -0.56758651460201    1.54943138979220
H           1.61816175085086    0.88802424103764    1.52199692787160
O           1.72840859082189    2.06892649088401    0.05531628512963
H           0.80745938175875    2.13544940523777   -0.26617609535986
H           2.20281807624706    2.82563566190903   -0.29067447103853
O           2.06062771600468   -0.35393836223927   -1.39103199451712
H           2.18590458318267    0.44763204646703   -0.86352937421993
H           1.59780470838741   -0.98022968481285   -0.80366584442674
O          -0.29327899746798    0.20991090159365   -2.50640699457978
H          -0.74294290461181   -0.60625605105187   -2.20313109512895
H          -0.66318144474840    1.26683788914239   -1.50865041273536
H           0.65804782891500    0.02397722153215   -2.33019067442811
N          -1.35981303004671    0.66091989139709    1.50901130708293
H          -1.62925571944402   -0.36492370860313    1.32230372423079
H          -0.36508758198023    0.60857413361872    1.89880556910047
H          -1.32160717344072    1.18631998657915    0.61054359494481
H          -2.00394238639654    1.09024019183929    2.16373551953670
