    26
        -50.46253662  Gyration_radius:  2.45941560636 Dipole_moment: 5.008
 S           1.10085630609184   -0.14096874146300   -1.74552147723743
O           0.08046151477757   -0.39927179715664   -2.72675283198993
O           0.77675498169143    0.91044194681152   -0.79481797842042
O           1.56033908309437   -1.34107998785445   -1.04954216587586
O           2.36060778986929    0.40734335822005   -2.54994756247492
H           2.32236626003033   -0.10557337336548   -3.35063867922348
O          -1.21453756720024   -1.27317129914532    1.63171345765756
H          -1.82684125470055   -1.90618622651781    2.00826015224744
O          -2.85987347649839    1.23303295826147   -0.98111065732948
H          -2.38398743331359    1.52820833830837   -0.18010110893956
H          -2.38768702432045    1.60747555710227   -1.72756714120173
O          -1.07192590037148    1.49877487280249    1.07673740677971
H          -0.44966393671944    1.32509125353003    0.34523278501768
H          -1.25609928814314    0.63343210340623    1.46747545768517
O           1.79311666090547    1.59998624085303    1.56485978717802
H           0.97707469666675    2.00051854003199    1.89055478622359
H           1.66936016626622    1.56283241956175    0.59568180913100
O          -1.69214580181432   -1.21005258012530   -0.90167935825455
H          -2.29737338210646   -0.44084064958265   -0.97825927159494
H          -1.01898802524739   -1.06177595394077   -1.58979678268224
H          -1.37348198291629   -1.29975695750299    0.63803776879085
N           1.45205492575895   -1.03803913046900    1.50092336221948
H           0.44705968840298   -1.22211804753854    1.71579531949383
H           1.55886699157397   -1.20096014271687    0.43936958065400
H           1.66598727169517   -0.01719240503576    1.67680717122390
H           2.06769872653600   -1.65015030647176    2.02428617091790
