    26
        -50.46253656  Gyration_radius:  2.45976103096 Dipole_moment: 5.000
 S           1.86826365456011   -0.87050367530084    0.18235595834498
O           2.08656374158647   -1.39451410009948   -1.14005289664361
O           1.33626724405215    0.48226737324292    0.21927092477406
O           1.08360744036853   -1.75601093748034    1.04043568396010
O           3.30514792938561   -0.76531236197517    0.85998434184139
H           3.74364192974393   -1.53554838023349    0.51337703477868
O          -2.34619800554379   -0.47004811220887   -0.17733610899508
H          -3.16711087673105   -0.86497057164033   -0.47329586889880
O          -0.81774748756832    1.87188330290257   -0.61387308946152
H          -1.53493171646478    1.23294194918542   -0.50045504794472
H          -0.00181002128507    1.38845334812421   -0.38331494042623
O           0.15976942140151    1.92233102298053    2.12266807538641
H           0.87097742148712    1.53649137239904    1.57388300408354
H          -0.33735355682843    2.47617967002283    1.50729417464754
O          -0.09514283259976    1.00050400773429   -3.10773275037834
H           0.86332746906417    1.03084686895390   -3.07914819741057
H          -0.40888496203978    1.53445326102258   -2.35161071197930
O          -0.50681417672553   -1.32032972283093   -1.77219280213237
H           0.41570180322075   -1.49392873000439   -1.51243702407842
H          -1.63039995500492   -0.85346275845501   -0.77231825921791
H          -0.44632761367839   -0.58998677546875   -2.42548379451350
N          -0.90993240882877   -0.51383355305951    2.08500709168328
H          -0.57886722688047    0.47854457021558    2.24120292179316
H          -1.61939954549666   -0.52423362465104    1.31909397098569
H          -0.06466456231753   -1.06955350979264    1.70866217102737
H          -1.26768311682924   -0.93265993356952    2.93601614875579
