    26
        -50.47250225  Gyration_radius:  2.48745236104 Dipole_moment: 2.899
 S           1.32433314936504   -1.78863600012189    0.43746078167349
O           2.37597500821140   -0.78503380621405    0.55023566487778
O           0.64327114080529   -2.00666307207865    1.69914411294321
O           0.42353418218619   -1.51021581504469   -0.66452347203892
O           2.04593102773228   -3.15341053982480    0.08215073661023
H           2.51883874783130   -3.32522103121683    0.88918977164085
O          -2.06876162117074    1.25708463797612   -1.31626272118379
H          -2.92420203327629    1.46692944526621   -1.69136063484005
O          -0.96816274006181   -0.07810886724961    2.30385811485906
H          -1.08546800333120   -0.08790285390388    3.25487242242800
H          -0.32389015884816   -0.80608269206063    2.10056565316415
O           0.26565590419160    0.43551654647675   -2.52887633351328
H           0.31977635358868   -0.42903236753605   -2.08109080151646
H          -0.61642226693737    0.78024632629343   -2.29810790637191
O          -0.54258927466395    2.15820067838467    0.79262690669886
H          -1.17419068025379    2.01419837070949    0.06506682640181
H          -0.69786590311917    1.42409245854742    1.41677177253686
O          -2.12840543013759   -1.01623426918744   -0.04627587515320
H          -2.16734219920946    0.36813542106434   -0.86618507596834
H          -1.25391649737774   -1.36436398477624   -0.31316697273977
H          -2.01373814593829   -0.76191451385521    0.88116137098989
N           1.63258180306287    1.46578202586481   -0.53480381642275
H           1.19452948375093    1.16268164090036   -1.45670563089627
H           2.36974378375130    2.14851805556594   -0.66648933694560
H           0.84431017327024    1.84658451620268    0.06704116697926
H           2.00647419657335    0.58484967982925   -0.07629671420708
