    26
        -50.46157869  Gyration_radius:  2.49809406901 Dipole_moment: 6.116
 S          -2.00137433935614    0.32010585214715    1.02941107477954
O          -1.80951475581587    0.50788873802821   -0.40642037700084
O          -1.19631520280341   -0.79845434397093    1.50443636827350
O          -1.81079360320317    1.53240487921806    1.78132961727401
O          -3.51471997586327   -0.10605721800817    1.21081792926489
H          -3.58822168617586   -0.87189521884200    0.64947838389203
O           2.32875107759875   -0.64587767065676    0.12943210371847
H           3.27273141123134   -0.50829101791258    0.21201317201033
O           0.11442611468378   -1.52788239883004   -2.98631235314808
H          -0.08834844754480   -1.88901968129249   -2.09115337057411
H           0.66337583405495   -2.18239875305219   -3.41968765725581
O           0.35941436427566    2.52546523609614    0.72065586510455
H           0.46345958518012    3.41147132611574    1.07294395178529
H          -0.52162115612873    2.22242700157472    1.04259335620224
O           0.01006407256993   -2.24036283135422   -0.41278644644714
H          -0.52753689261078   -1.78323477130391    0.26392190566165
H           0.92250478385484   -2.03241943475104   -0.17617987049302
O           1.13171245544958    0.30278285575891    2.20281144560921
H           1.92621718721331   -0.35325216013543    1.00434189191694
H           0.96896304400527    1.19936618096219    1.86401069117575
H           0.26521743050071   -0.14824480098752    2.14848425255957
N           0.54702973111344    0.63153767209758   -1.48174393137858
H           0.76086804264040    1.59415009779876   -1.71861215559783
H           0.45527419397662    0.00009932319621   -2.30492185284298
H           1.27453115096131    0.23278265906068   -0.84737898453790
H          -0.40609443997341    0.60690849929860   -0.99148498986709
