    26
        -50.46911769  Gyration_radius:  2.49244771637 Dipole_moment: 2.692
 S          -0.59567139184476    1.24511011377848    1.41389177347237
O          -1.02837551218128    0.84207913175973    0.08052849503285
O          -1.14430692022596    0.36185367380941    2.42944528718190
O           0.83623091245282    1.42276914277563    1.50208677400277
O          -1.22844753768506    2.67533424374453    1.68015223267184
H          -2.12356382738068    2.46865896669353    1.92896617019442
O           1.85090099252035   -0.89069931444627    0.57917221514007
H           1.74578354157973   -0.06836435384591    1.09106878579542
O          -0.21016520165105   -1.72956210257554   -2.88411645628270
H           0.46833045541010   -2.39251418729918   -3.01827661924811
H           0.25071282546252   -0.91273718344673   -2.61810666714151
O          -1.93266645883935   -1.58479884237299   -0.79367996728496
H          -1.43541431458475   -1.73477815469007   -1.62383095771897
H          -1.86949874468112   -0.62857672338056   -0.62836417997122
O           1.69633810760252    2.79737083725970   -0.64347281355256
H           1.23240214337357    3.63537043971035   -0.64563754838518
H           1.47113014005877    2.36612937551672    0.20366252108342
O           0.95049763357619    0.36703494129002   -1.61631316162472
H           1.70978800218560   -0.59320090566299   -0.34551202473086
H           0.16244530895732    0.56558429488081   -1.06429050671256
H           1.43439186274476    1.20934762979162   -1.62171275407484
N          -0.44746758556967   -1.91891546626222    1.33227781899268
H          -1.07442587578096   -1.96003079662995    0.46547785921379
H           0.54227009905995   -1.66390694842823    1.02751483431166
H          -0.78854066851695   -1.09871128309597    1.90151289660680
H          -0.47267798607124   -2.77984651888813    1.86755599298755
