    26
        -50.45918793  Gyration_radius:  2.47659729644 Dipole_moment: 8.277
 S          -0.85620106921486   -2.00957876664137    0.50387129867406
O           0.40854446608578   -1.44431347238573    0.97972718618114
O          -1.97623094503969   -1.31082915525649    1.14637744854169
O          -0.96712975571774   -2.06201740956741   -0.92218954143946
O          -0.90932026570739   -3.49139414772893    1.04928651494860
H          -0.91614572365970   -3.36196440300805    1.99177888991950
O          -0.47472894378102    1.65268685020569   -1.68634811287681
H          -0.87529063375055    2.09589286771500   -2.43485421616681
O           2.41420017775791   -0.70436545380537   -0.78926935288643
H           2.47772186399351    0.24253529366611   -0.56318366654256
H           1.81627985392526   -1.09447393226456   -0.13188743869055
O           0.53902952375627    0.88772903956734    2.10607289727507
H           0.52559265857327   -0.02455652442227    1.70864136618929
H           0.99456677788728    0.81037539950495    2.94509088526215
O           1.89381640919327    1.92206841570813   -0.12122532808365
H           1.16342652013291    2.00913762395487   -0.74852518149621
H           1.49332880411979    1.69000191686022    0.72945570285661
O           0.45830699867439   -0.52935906247226   -2.57157635882027
H          -0.11531368032516   -1.19401187747386   -2.14567164521050
H          -0.09145904265025    0.77381315458587   -2.06618757965665
H           1.32186611911273   -0.63013767779265   -2.10149536807205
N          -1.68434435430435    1.17654056883921    0.61810369813455
H          -2.50871285018036    1.74524693578586    0.78018111182913
H          -1.28741388793295    1.34126761580472   -0.35162107109194
H          -0.94169331946912    1.38365279264152    1.30759819254329
H          -1.90269568147927    0.12605340797947    0.76784967867882
