    26
        -50.45918793  Gyration_radius:  2.4765969069 Dipole_moment: 8.277
 S           0.67595420680538   -2.03960840731832    0.63909368651182
O           1.68399391206097   -1.38241604374295    1.48021642090874
O          -0.63318555438802   -1.42797330843098    0.87909328156878
O           1.04417121969903   -2.09652880029959   -0.74289066553594
O           0.57449656469629   -3.52221006324408    1.17544667302324
H           0.41331268236790   -3.39283621747758    2.10408694931212
O           0.83514825136886    1.63354805750063   -1.56030848277141
H           1.38180181064636    2.06147891547667   -2.21999661494778
O          -1.76857884315029    1.99051599789958   -0.45336282897206
H          -1.53933285250258    1.74411506845458    0.45473159318662
H          -0.93299626535191    2.05041007532989   -0.93582592951572
O          -0.88299286970309    0.90764348812394    1.97754629210859
H          -1.48694552617855    0.84738640597891    2.71853160696764
H          -0.83013429171144   -0.00463747967996    1.58340622827099
O          -2.25278586935434   -0.61516079407099   -1.22227696226550
H          -2.32223401775783    0.33350695470930   -1.00553444252429
H          -1.79991156311449   -1.02683633844597   -0.46910216461351
O           0.00144276033536   -0.51290349969316   -2.61538846305223
H           0.49630115354079    0.76927280986961   -2.00953445526746
H           0.46286872835329   -1.19811324192444   -2.09599273995958
H          -0.93667252114993   -0.58163725063587   -2.31193764544567
N           1.58424248328980    1.11385446449231    0.92347427880085
H           1.73321400327226    0.05608023857099    1.10387967877438
H           1.37784189499994    1.29279734080779   -0.10143090258832
H           0.73590294358465    1.34840855925593    1.46673682480569
H           2.38507758934164    1.65184304849384    1.23733879322004
