    26
        -50.46254337  Gyration_radius:  2.49135133074 Dipole_moment: 7.168
 S           2.19710696545847    0.64178951938181   -0.62909178103182
O           0.95984037747922    1.42054476225847   -0.55927436063808
O           2.65864416373254    0.31965216139257    0.72416907891025
O           2.10380879812062   -0.50288140345259   -1.48886073775647
O           3.29392552176048    1.60726761582654   -1.23658581981658
H           3.34559423174631    2.28576881403534   -0.57151239667600
O          -1.00448513632245   -2.04157049109374    0.44528363519696
H          -1.16759732222047   -2.98283548089590    0.51391520032864
O          -2.67131925223814    0.12750016524480    0.34906502760586
H          -3.58528748985688   -0.12445527068765    0.21206381098251
H          -2.15150527262051   -0.69838928535724    0.40933534107175
O          -0.70847683446359    1.74400046580369    1.48776580496400
H          -0.11002005053938    1.83403521324201    0.71506526107403
H          -1.55125094024754    1.43021196122691    1.12770928520716
O          -1.25133669231706    0.85390223840121   -2.00197742716418
H          -1.86964957288952    0.79889375569256   -1.25954632954178
H          -0.41297778741692    1.17095454371719   -1.61701564475018
O          -0.25281441801759   -1.61623381915656   -1.93356617994856
H           0.68554036785835   -1.34068951638417   -1.87182857014134
H          -0.68045107452028   -1.89301846357737   -0.52294052288860
H          -0.71906513627238   -0.78284473113958   -2.17571102604070
N           0.57669204309897   -0.47501668053377    2.00182169331837
H           0.05786822647921   -1.19044403080888    1.45059068352386
H           1.49632087404786   -0.22284382050107    1.50145099675999
H           0.00552953851323    0.42913435213790    1.98170016797319
H           0.75536588165914   -0.79243255478606    2.94797479946858
