    26
        -50.45476202  Gyration_radius:  2.60452960625 Dipole_moment: 5.777
 S           0.97047958708360   -2.36193005505880    0.63411184529835
O           0.89564624779746   -2.64213037074330   -0.78489568421220
O           2.12471463953955   -1.51051504112834    0.96187593362860
O          -0.23642151440532   -1.81510931034200    1.20602916757365
O           1.24025034832747   -3.76004592779175    1.33878098181865
H           1.80624221953560   -4.19234123035079    0.70680673676634
O           1.03750874174806    1.34821100552771   -1.57299423977732
H           1.80614402582373    1.27856381409467   -2.13982027290868
O          -1.45376415159196    2.46852356912507   -1.12342699985719
H          -1.99168168429536    1.74562273430098   -1.46128825785498
H          -0.55054537272897    2.28926472540495   -1.42962909191298
O          -1.33717820928490    1.85909157517669    1.45376171608520
H          -1.39810086074771    2.22661936223082    0.53761651211046
H          -1.93884972654896    2.36439902026433    2.00036671051046
O          -2.20434587125424   -0.47256758883369    0.05683827190965
H          -2.11832500706202    0.30373089459336    0.62654286533548
H          -1.64650462678514   -1.14131784547189    0.50059163456486
O          -0.43574679518885   -0.68366804220353   -1.95476899291405
H           0.46900231727417    0.52101402852255   -1.77513128100640
H           0.06048618256057   -1.47206605093754   -1.64148428976119
H          -1.19769222445828   -0.61608530124842   -1.33858010963947
N           1.21770982085567    0.86760775134725    1.05623059759452
H           1.58300283976998   -0.16272292865348    1.09624399655336
H           1.21557397907538    1.14410188131471    0.04040419189688
H           0.25365014380953    0.93966793482537    1.41196143359762
H           1.82874495115035    1.47408141600368    1.59385662459744
