    26
        -50.46199337  Gyration_radius:  2.60851468207 Dipole_moment: 1.339
 S           1.03698160763921   -0.73637162929730    1.66144070896198
O           2.23080913015986   -0.17419825872097    2.24680724660442
O          -0.12324039515682    0.12134630774412    1.76761544631685
O           1.22662474995418   -1.19490097355668    0.28399432234329
O           0.72690341596363   -2.06159639334027    2.50595171987221
H           1.44597106094577   -2.09762247523449    3.12984010971740
O          -1.88994493520147    1.12601853110077   -1.44837949672400
H          -2.47053222723937    1.85731868910032   -1.23390022904606
O          -0.84434560876023   -2.88343266779312    0.12364833292041
H          -0.81132077875851   -3.30136679720721    0.98685384519799
H          -0.02832359583532   -2.35184279102409    0.06569838582222
O           1.67452479251380    2.23784143769830    1.28689589573967
H           2.07302852754848    1.43035762604929    1.67539793310229
H           0.86505098685748    2.36196558567785    1.79116597681382
O           0.01807551455699    1.00918147031149   -3.59067872264890
H          -0.06879662225830    0.34238329662649   -4.27276602356338
H          -0.81492502356606    1.01072673310259   -3.09812502446665
O          -2.29810917548690   -0.61651671058285    0.40456416613482
H          -1.60941853031279   -0.29911269333682    1.02306641304932
H          -2.12887310950359    0.39353038795777   -0.79877198999830
H          -2.00030915518104   -1.51601752265919    0.16564392205369
N           0.77067954625179    1.08512285530105   -0.94658362904420
H          -0.26855708120905    1.19858224032606   -1.01653652954936
H           0.96900239778072    0.10773838522934   -0.61118466551668
H           1.14332414556082    1.23157212337183   -1.88798845865118
H           1.17572037274560    1.71929327317954   -0.21366968546039
