    26
        -50.46199252  Gyration_radius:  2.60949405808 Dipole_moment: 1.377
 S          -0.39498435664483   -1.54457381468001   -1.35717508228342
O          -0.24125526902242   -2.95979718315827   -1.11736592882255
O          -1.41521533173180   -0.92383057740563   -0.54009622049393
O           0.86398556850546   -0.80167379390754   -1.27964927218704
O          -0.86470783021114   -1.41547300932199   -2.88319359986056
H          -0.89726234645763   -2.32001735430729   -3.18048156377003
O          -0.39489281831194    1.98778517299592    1.67816075166899
H          -1.10802080768343    2.12144887755697    2.30383861840373
O          -0.50322958122612   -2.63368730666726    1.50465522618001
H          -0.33348757984313   -2.94705837296769    0.59105397406665
H          -1.40952412790149   -2.31318755887206    1.47457804284771
O           2.39711812681235    1.72152879897969    2.29044597495295
H           1.51786703210799    2.09847695773055    2.14419772855359
H           3.02762166739809    2.36002195318363    1.95565921790218
O           0.15089931294542    1.36652316897687   -2.67831974639448
H          -0.35654818465223    0.97141133445335   -3.39054196921860
H           0.55686807202170    0.61523170581272   -2.20648207482970
O          -1.55441968556920    1.74184402742257   -0.60894505709099
H          -0.82794433012156    2.01000904917787    0.76841308042366
H          -0.95540532513720    1.88272676628019   -1.36804657120127
H          -1.67033031001485    0.77055590213278   -0.57985032489678
N           0.89467655442096   -0.36559421091496    1.31466496578957
H           0.27255476648347    0.45721293341306    1.49858962845523
H           1.02709772487750   -0.44663020745963    0.27412798288590
H           1.78253051949861   -0.16943395910472    1.78342506754477
H           0.43600855946175   -1.26381928933416    1.60833714136759
