    26
        -50.47071379  Gyration_radius:  2.41588166444 Dipole_moment: 4.143
 S          -0.72710268513692   -1.77721553947874   -0.65106373606725
O          -1.15063407596318   -0.82423112397660   -1.66355654329241
O           0.72938229016066   -1.92896068080972   -0.63356509144532
O          -1.25747208574603   -1.51663303559800    0.66540732484334
O          -1.31329293989657   -3.17808773792949   -1.09917532532648
H          -1.12677509808032   -3.18769286480272   -2.03167389709574
O           1.31529263533166    2.05482191341041   -0.66367967850941
H           1.93844586736615    2.70776225100188   -0.98410964013911
O           1.18666744917898   -1.51544298146674    1.89800690753364
H           0.31907418190376   -1.81710696507202    2.19026060083001
H           1.18225468509988   -1.73908337925956    0.93834351629124
O          -1.53749745718638    1.73163459933889   -0.88152714013453
H          -1.52225825760156    0.82367793680283   -1.24056264194125
H          -0.62336396493300    2.04387265254241   -0.91107537634354
O          -1.80942587809744    0.90980535918414    1.61504596386388
H          -1.92917309690684    1.36530985909550    0.74801773165203
H          -1.81345316955569   -0.03974809410106    1.37809896373972
O           1.30674045387026    0.01934680753006   -2.27778607651198
H           1.37617078018079    1.27943121620805   -1.29596654277332
H           1.39693065444893   -0.75795987042383   -1.69049771341239
H           0.36764962778437   -0.02679502523736   -2.51438716241362
N           0.76188255980154    1.09282015087771    1.83354082912690
H           1.04785412508829    0.06906326193115    1.89204599377222
H           1.07904824773672    1.49613928184660    0.93107766032335
H          -0.32973071500852    1.09521758463462    1.83288851699552
H           1.13278585601563    1.62005440395864    2.61589255651449
