    26
        -50.47168458  Gyration_radius:  2.49111089529 Dipole_moment: 3.022
 S           0.87560732202621    1.56258422645185    1.44524651152174
O           2.05137273392090    0.70311206704084    1.53537088097767
O           0.45600449068479    1.71167505347921    0.05407384047894
O          -0.20341268804212    1.16556240347723    2.31370963967462
O           1.35103062624194    2.99201252173718    1.92966511375793
H           2.16490956277724    3.08918180583082    1.44751450457332
O           1.17792716025487    0.39221022721326   -2.17667325654600
H           0.94972316155303    1.05841910572416   -1.49928976976268
O          -1.86220834550264   -0.72275961164642    1.70229846154097
H          -1.21670888497860   -0.02208521262027    1.97662782968860
H          -2.32782939160708   -0.97914822399926    2.49946993143179
O          -0.54522730446095   -2.30323440110285   -0.07874844092252
H          -0.87953149950894   -1.94099916472903   -0.91924484932128
H          -1.04813979767912   -1.83857920695862    0.61740679031597
O          -1.30693531478960   -0.78513891873801   -2.24626815495334
H          -1.95310280001798   -0.87268606139169   -2.94709859963514
H          -1.65425429045437   -0.07739585535793   -1.62775429387815
O          -2.05663567380373    0.98724732739390   -0.49506641635493
H           0.32564197941414   -0.01030862249642   -2.42444745032300
H          -2.27687139517124    0.45487786647487    0.28332853930886
H          -1.19326791157775    1.39766958574332   -0.28300712724139
N           1.85617469755935   -1.21616367027802   -0.21712100671320
H           2.65179166124899   -1.84247935643388   -0.26128844761368
H           1.97791314476685   -0.50130737525349    0.55734077204313
H           1.73792892400725   -0.65264579149962   -1.11373410177769
H           0.94809984315732   -1.74962070805696   -0.07231088026462
