    26
        -50.46361289  Gyration_radius:  2.49262929452 Dipole_moment: 6.641
 S           0.30065017247817   -2.33298448533001   -0.08369053929671
O           0.65186940738824   -2.32161310902835   -1.48384534287307
O           1.45259190316714   -2.07474713815473    0.78184759249071
O          -0.81140212226382   -1.46278591935123    0.25997668580440
O          -0.17801300396064   -3.81091156948258    0.23780306618140
H           0.39389209768930   -4.31354283615392   -0.33242177171531
O           1.25499454123460    1.83611531707993   -0.60061549393385
H           1.91780772728966    2.36896904958728   -1.04136006696748
O          -2.08196982935738    0.20169508861625   -1.44932497366833
H          -2.05854820409834    0.98441790638117   -0.88092984158104
H          -1.78523565699419   -0.53342500215465   -0.88293540106067
O          -1.30929684124859    2.39329373892982    0.18666484052178
H          -1.58788468284426    3.26946984531975   -0.08184656180282
H          -0.38488661606240    2.28044562950489   -0.11052852542042
O          -1.20836503448802    0.39367223131332    2.13374185231507
H          -1.49855832029242    1.13873544047409    1.58626507101863
H          -1.27296875734110   -0.39375503616297    1.55558791860199
O           0.43946477621065    0.17525825719671   -2.33856592238412
H           0.62860054545842   -0.76159045235357   -2.11915738469570
H          -0.53894524140256    0.23868317340378   -2.25416478995488
H           0.95886549065475    1.14410905355605   -1.29840570842237
N           1.36749136713560    0.33567829998698    1.66110925583682
H           1.46083765128054   -0.68506910940267    1.32654914575585
H           1.47685800263006    0.95497858501238    0.83310671914110
H           0.36310927476744    0.43017239104664    2.01365767584431
H           2.04904134296870    0.54473064016626    2.38148250026416
