    26
        -50.47168685  Gyration_radius:  2.4910490389 Dipole_moment: 2.991
 S           0.23278422968995   -0.64526707116892    2.19787783123893
O          -0.84546070696877   -1.59606762107185    1.94893719896328
O           1.20671024794637   -0.68029057565535    1.10933399746094
O          -0.22505832418139    0.68778904016680    2.49621215436981
O           0.98371309585400   -1.16976552742819    3.48827044119762
H           1.13235453741703   -2.08087336854090    3.25985333231165
O           0.93112144302301    0.69883342018177   -2.45049491996662
H           1.41625442135847    1.12036117523290   -3.15998960414776
O           1.10942501916329   -1.80773942918082   -1.33260822806581
H           1.35319108554708   -1.49682091943402   -0.43901301464866
H           1.16658374683015   -1.01381727712374   -1.89492983427377
O          -0.92907972200902    2.36593094438742    0.65757757825015
H          -0.70235086981357    1.72877451286034    1.38231119949636
H          -1.41478589453367    3.07831381652554    1.07544871053942
O          -1.64291410644555    0.84457951735641   -1.48372687693816
H          -1.49047610017601    1.45133537860820   -0.73418403511117
H          -0.81411417444510    0.85922208717643   -1.99603078304764
O           1.64784134261124    1.64299456346115   -0.13424874517359
H           0.87815886631112    2.16002778244298    0.14516201773167
H           1.61183574566576    0.82658426234041    0.40532769453495
H           1.27384572419202    1.09762079922361   -1.59746204934172
N          -1.40346372675810   -1.62996260380528   -0.59582832092003
H          -2.11371652723657   -2.29798794903160   -0.87253442923313
H          -0.44827057831419   -1.86669421026523   -1.00388770740110
H          -1.64072397574181   -0.64879105986510   -0.92875342157945
H          -1.27340477899334   -1.62828965739571    0.45737983375220
