    26
        -50.47150077  Gyration_radius:  2.42637935299 Dipole_moment: 3.446
 S           1.63647943552284    0.79919678997560    0.47504194572834
O           2.67255710181740    0.07240131936895   -0.24225468215337
O           0.75273082550393    1.50655683516150   -0.43975702057614
O           0.91333763627011   -0.03309442219259    1.41556505715034
O           2.36854586859141    1.89741974519485    1.34219931837513
H           2.87296253171577    2.37006297011612    0.68869688957013
O          -2.32507698368662   -0.58334341514284   -0.71749957103705
H          -3.27278469706565   -0.66489536820102   -0.82763973513012
O          -0.39552609049581   -2.15212871354181    0.42467320455741
H           0.04877839335997   -1.46808687163915    0.96288082574047
H          -1.19712511126384   -1.71879723003867    0.07515707041704
O          -0.92242215304410    1.07285579573722    2.99830301389142
H          -0.15283063386855    0.70979049531369    2.51615281062031
H          -1.21033574813892    0.38472012079487    3.60027708450475
O          -0.35280817834247    0.14342493536453   -2.48997049450909
H          -1.18159428848947   -0.11395473023018   -2.04474711552503
H           0.04096160787732    0.81634078313689   -1.90110997897923
O          -1.77498039634636    1.65001384046890    0.47585815877534
H          -2.17409212012164    0.27926600416705   -0.22545714051062
H          -1.66584738865030    1.55799455406450    1.43991791086328
H          -0.86794067167833    1.75846598489450    0.13261289415582
N           1.25614267404683   -1.68852696308482   -1.55386264640439
H           0.63971886334184   -1.03551379856691   -2.13265717531959
H           1.70484009089409   -2.40641956369096   -2.11119345525514
H           1.95988776886424   -1.06498997229149   -1.06980176482218
H           0.62642164338670   -2.08875910513742   -0.79138539412409
