    26
        -50.47150079  Gyration_radius:  2.42639609967 Dipole_moment: 3.447
 S           0.94429282775300    0.14443197703122   -1.62180546988044
O           0.66706821507934    1.35587814587898   -0.86434025045228
O           2.28736670032205   -0.34985041305402   -1.36096501625066
O          -0.07413018734874   -0.87056338388150   -1.44061204337410
O           0.89418396968999    0.54060917487817   -3.14973862388675
H           1.61708773986214    1.15433651406339   -3.22479828934457
O          -1.38835340100244    0.29069115541145    2.06152200766542
H          -2.07923075674142    0.45860868083678    2.70289249745568
O          -0.28710154528806   -1.97505334515837    0.99261948987697
H          -0.32653232183497   -1.72495334621399    0.04875564378132
H          -0.78838373599842   -1.28036201705086    1.46017364185932
O           1.13135355928562    1.35787780403543    1.79428497639166
H           0.23901737910285    1.09085916810536    2.08369178405083
H           1.02338073952330    1.58476421185045    0.85010374876052
O          -2.61018161496811   -0.29729899604785   -2.02219145524305
H          -3.10081288208904   -1.11525578160310   -1.92715069314032
H          -1.66448426076185   -0.53584938740431   -1.94933898967310
O          -1.91905870233420    1.54827954960809   -0.14104285358216
H          -1.66089902796019    0.77389667727011    1.22412430970300
H          -1.00315284585128    1.62393667658710   -0.46924256198107
H          -2.37461165049211    0.99635424768300   -0.80259550174342
N           2.12656345523016   -0.97494290960197    1.17102529772697
H           1.87833267471567   -0.02023171249302    1.58133021581065
H           2.33541502561078   -0.80259741443681    0.14878449969497
H           2.90230282797439   -1.42079104276267    1.64724760599056
H           1.23056782852334   -1.55277424353161    1.20726599978530
