    26
        -50.46309155  Gyration_radius:  2.4465851111 Dipole_moment: 4.785
 S           1.95201989103468   -0.02842373454155   -0.34666323965209
O           2.41402750016577   -0.47041532528794   -1.63084167096794
O           1.29179272467646    1.25831007954292   -0.31339098670282
O           1.16333053615341   -1.04342566885482    0.36856809201990
O           3.26181308691502    0.16845598267065    0.56255247154496
H           3.89241928405485   -0.44132712691346    0.19134863334011
O          -1.43604960630965    1.35761341867416   -0.93667062521006
H          -0.84947153198780    2.11776599068883   -0.98044819994517
O          -0.88558959468418   -2.48535227044816   -0.74177917051124
H          -1.61860528714714   -2.03427528787678   -0.29609397687870
H          -0.07637945222389   -2.21286845485212   -0.28122931964022
O          -2.98269628959429   -0.77937372654932    0.15155712014027
H          -2.73034362513598   -0.01676922431346   -0.38778257366519
H          -3.75520411828519   -1.16415192464075   -0.26577684450862
O           1.27270133425680    1.95532816406359    2.22348706005710
H           2.09417814063819    1.63394930274277    2.59890409586512
H           1.38420367696137    1.86648988401762    1.25096406273422
O          -0.20114566086646   -0.44089171997393   -2.37222679043294
H          -0.99381999820800    0.69515209080863   -1.54293547095466
H           0.76448654631867   -0.41354423144472   -2.28013245901032
H          -0.47842088098476   -1.30809322967391   -2.00963280086736
N          -0.72474596907813    0.35529856224661    1.44282701328429
H          -0.20814643961812    1.03133603679680    2.03765590258874
H          -1.50046242332151   -0.11047142205321    1.90486941626029
H          -1.06051742558285    0.84084937913906    0.56347567682840
H           0.01062557185418   -0.33116555397351    1.08939458428898
