    26
        -50.47395392  Gyration_radius:  2.40845891726 Dipole_moment: 3.050
 S          -1.18584339135380   -1.06542444499434   -0.74817311018525
O          -0.01343836290683   -1.55004672018309   -0.00966694075620
O          -1.58720478095858    0.25074136303106   -0.26882772312052
O          -0.96526695136847   -1.08406113923534   -2.17682512940761
O          -2.35508905314852   -2.06145717169590   -0.43195807229685
H          -2.34208610073969   -2.14209473378429    0.53451048486091
O           1.41965835690862    1.70138107833451    1.29609622349775
H           1.78586537300612    2.28544914306594    1.96131184638473
O          -0.10801597428092    2.39444001469244   -0.90947389320849
H           0.47451325819745    2.35868031616658   -0.12915330812111
H          -0.83191473325018    1.77116481272277   -0.69916259344642
O           2.32119863911756   -0.31751989863398   -0.35937995628233
H           1.57492239807521   -0.92365736915252   -0.17322743316235
H           2.20596985477913    0.40925178180083    0.27734706835894
O          -1.33544680593733   -2.18859993690197    2.10138353837287
H          -0.66768575368770   -1.99287704425620    1.40076191101980
H          -1.12889283469231   -3.06039884051009    2.44337987869595
O          -0.80317756031640    0.63080966143238    2.22888255242585
H          -1.21015310754736    0.56161029547073    1.33913773482372
H          -0.92144524799540   -0.24309400944745    2.61667121898411
H           0.63041011390503    1.26875299692907    1.71334343797433
N           1.02707278823746    0.60628312508498   -2.44043447282934
H           0.60574114543139    1.47633132853066   -1.98648437269830
H           1.43863242226202    0.79078827193043   -3.34817175470158
H           1.72807124181722    0.22324048785751   -1.73314300313338
H           0.24360504646069   -0.09969337826004   -2.49874413207068
