    26
        -50.47395397  Gyration_radius:  2.40837087035 Dipole_moment: 3.051
 S           0.47728306865342   -1.63977316550425    0.42916431307362
O           1.31764746868940   -0.51225260996303    0.81065889461797
O          -0.91989110565356   -1.21606575320246    0.27683292336125
O           0.96615614291572   -2.31149443635647   -0.75401628306332
O           0.50429010706551   -2.67139230750289    1.60997684179839
H           0.01081256629854   -2.23158438263487    2.31967365762015
O          -0.49702177338134    2.49998806581155   -0.29731837162138
H          -0.68764281171684    3.42858580286656   -0.15898849991563
O          -1.55709716432596    0.39856897529540   -1.74283093901798
H          -1.33175508611994    1.25120745672098   -1.33158891432300
H          -1.51485222356929   -0.24471607148472   -1.00570064649584
O           1.92303098633706    1.35661645602356   -1.01536513622766
H           1.92970886643371    0.72042085982978   -0.27248686711587
H           1.16535637952226    1.93945985241886   -0.82637753389531
O          -1.38756174147805   -1.09784050019215    2.80258470008475
H          -2.20373528619329   -1.52478014267803    3.06939943094895
H          -1.39245707098972   -1.06753839129394    1.81559489366529
O          -0.09728608147680    1.35202182113507    2.04354365217379
H           0.53073720156365    0.69379401970894    1.67700677892370
H          -0.42555286418549    2.09571861153286    0.60579371971296
H          -0.72048685637792    0.82926432155997    2.55970465681561
N           0.79171629175232   -0.41777561137617   -2.56494473212064
H           1.38737820317316    0.34268291131648   -2.10937628734361
H           1.04239382538347   -0.59444662659776   -3.53104378181091
H           0.90883194152090   -1.27811026181310   -1.96350704291239
H          -0.22000297556912   -0.10055890620594   -2.44638941700305
