    26
        -50.47395393  Gyration_radius:  2.40844916731 Dipole_moment: 3.050
 S          -1.04167642894347   -1.41874011798162    0.05916505669033
O          -1.60233151631924   -0.11485728955335   -0.27031373015401
O           0.38246273562562   -1.47375018295613   -0.29248592088050
O          -1.26728031490798   -1.77842474455606    1.44110768993170
O          -1.76369633988526   -2.48466814935683   -0.83623847036835
H          -1.43868014132520   -2.30061634575756   -1.73133101191334
O           1.25951206583326    2.20838796393644   -0.35562572229009
H           1.64869425184530    3.00317036745476   -0.72247941444320
O          -0.02794784881277   -1.74839491355891   -2.81598263663146
H           0.48894585392224   -2.44645105044501   -3.22243949184152
H           0.32246753383099   -1.63214290364877   -1.90013396408379
O          -0.98917882837998    2.00669098508439    1.25172838961024
H          -1.42974408806339    1.34417296968311    0.68271683736190
H          -0.20909184366070    2.28427771242076    0.73805177525981
O           2.10306751919960    0.01342327253889    1.09315681527312
H           2.00355964548533    0.85141635339428    0.60858286960352
H           1.63002143250331   -0.64315159137889    0.54169646163684
O          -0.22389938448909    1.05062603344745   -2.20389315962548
H           0.77221468215354    1.77065829187537   -1.10067611011055
H           0.00919590094403    0.30533351378213   -2.76801625684343
H          -0.84911621439474    0.67559983692831   -1.54773047883095
N           0.04784927766214    0.10488349334419    2.71380467315667
H          -0.50780897591848   -0.71801096124248    2.35364695771011
H           1.00377848683912    0.05450312324326    2.24259038123356
H          -0.42457663150010    0.97577413919110    2.31520886895686
H           0.10325917077399    0.11029019408575    3.72588960161944
