    26
        -50.46214851  Gyration_radius:  2.46071557289 Dipole_moment: 6.840
 S          -1.64119861455173   -0.98104037641217   -0.71030383033987
O          -0.84440200809451   -0.30528593442109   -1.72871543113833
O          -0.91055083043480   -2.14495995556476   -0.20241454259661
O          -2.10101657855889   -0.09403782164535    0.32219818849838
O          -2.91918415693871   -1.55802640226704   -1.43600981389920
H          -2.52802735359762   -2.19779795767965   -2.02008916885679
O           1.61584924143181    0.39602205111666    1.65770095661800
H           2.21323540202348    0.74413938290712    2.32027660029083
O           1.73606972173429   -0.20127501924201   -2.38913481529738
H           1.85012774930995    0.72018453548308   -2.11821375741301
H           0.76678947728426   -0.29670967883143   -2.46697793866202
O           0.60036729055996    1.72385078253536   -0.62357579936366
H           0.99749793427068    1.32843124125022    0.16678915587153
H          -0.03555354361907    1.07469476609638   -0.97594066844351
O          -1.49788714211574    2.62239302405949    0.99213352706894
H          -2.07700784137164    1.92431978666591    0.65974024965237
H          -0.74782328504932    2.63660584385670    0.37477196778445
O          -0.77270047125081    0.55764299871454    2.56554901920593
H          -0.99913719912709    1.48267565295273    2.33101395271725
H          -1.31404577240758    0.05129218125277    1.93330811879367
H           0.69040113487404    0.41998834930315    2.07282367998338
N           1.60787029265752   -1.59583431000386   -0.13908211493706
H           0.57098859469626   -1.88532526667635   -0.14922769354591
H           1.80193655881566   -1.09970617179041   -1.05916691955662
H           1.73369096727775   -0.91469573344636    0.64073365657951
H           2.20371042218103   -2.40754596821750   -0.01818655901592
