    26
        -50.47250252  Gyration_radius:  2.48745272566 Dipole_moment: 2.898
 S          -0.69478544532201   -2.00913011596670    0.79016345039010
O          -0.56720616327862   -1.36632041964354    2.09251820201869
O          -2.00710744465767   -1.80311495391281    0.20807732677557
O           0.39395425279446   -1.65391880837708   -0.09978097149424
O          -0.56391088079636   -3.56704591899076    1.04587502346186
H          -1.36754502498143   -3.74205852527916    1.52333810751895
O           1.42213282236987    1.59171910532537   -1.74222483585133
H           1.78460969624151    1.98804149394707   -2.53471857342654
O          -2.32424590933738    0.59378687451866   -0.70687162004907
H          -3.26515080610985    0.77493486075105   -0.72073880309946
H          -2.22715391506601   -0.31775838500217   -0.32480242611244
O          -0.40412103831977    2.31960784732834    0.18704186754389
H          -1.16095788072720    1.77856617989391   -0.10824566647485
H           0.25192338964263    2.25631762227234   -0.53046477248654
O           2.57702858689528   -0.08100781546198    0.11932865300206
H           2.37115001579075    0.54646949193369   -0.59756668749995
H           1.98006727574386   -0.83683921374624   -0.03271632049818
O          -0.24886798398956   -0.32017076904839   -2.32340287541613
H          -0.00805787127016   -0.95387742866686   -1.61797554613073
H          -1.10654988776833    0.03442037621445   -2.04673767443873
H           0.81079186522108    0.85931811117174   -2.04599234637738
N           0.87776794792729    0.79697072632105    1.92190201769800
H           0.31849006976112    1.49025951292700    1.34262764344779
H           1.16964083829207    1.19480333371003    2.80702897063968
H           0.28325113049263   -0.06924815941225    2.07103490561118
H           1.70485236042390    0.49527499719198    1.32330293123606
