    26
        -50.47250252  Gyration_radius:  2.48744803443 Dipole_moment: 2.898
 S           1.19589038339693   -1.83898379018595   -0.57600827866351
O           1.58957799670357   -1.83171418159551    0.82774613416897
O          -0.02753418467349   -2.58674713052810   -0.79397335167219
O           1.16365625608148   -0.50230867868918   -1.13794142684392
O           2.33462398849394   -2.61687158603162   -1.35557459772678
H           2.21063358919833   -3.50046065917553   -1.02645284750296
O          -1.02114576680381    2.51266203462450   -0.48466427176625
H          -1.46267662775769    3.26155982251977   -0.88556501161115
O          -2.12868409393929   -1.31245552437959    0.00855242121414
H          -2.80976336656402   -1.96259535407893    0.18681220581257
H          -1.32551661964724   -1.82694974074937   -0.26811642473772
O           1.66219059690516    1.96738246956242   -0.16851351271534
H           0.78246409320283    2.35864536226422   -0.32028859362198
H           1.66942371136343    1.15504142601146   -0.70778994421198
O          -1.51730418047414    0.80700830502606    1.62044900394026
H          -1.46962201715708    1.52927223421754    0.96834453825940
H          -1.81025844787258    0.02434419037183    1.11615131514760
O          -1.20484608695161    0.39391755201973   -1.98879738834045
H          -1.11759281045248    1.75026097337857   -1.12645861059896
H          -0.30652897633671    0.03096941087457   -1.85272232817781
H          -1.78261698181461   -0.19587914052643   -1.48258877705199
N           1.08560565187382    0.48085287283808    1.92083509974656
H           1.32108205777276   -0.48410260718804    1.54740725041511
H           1.44115923149092    1.17814331844180    1.19918431991963
H           0.02802660154386    0.58025577988332    1.94617018063584
H           1.49975599244732    0.62875264108699    2.83380289600321
