    26
        -50.46361291  Gyration_radius:  2.4924645639 Dipole_moment: 6.636
 S          -0.10016347978951    0.10643334346035    2.34880445112782
O          -1.44416862331223   -0.41826236051311    2.39802399101593
O           0.76800379453140   -0.56512715462214    1.39616727854670
O          -0.07470628490364    1.55594697056247    2.14693188436511
O           0.52762166405074   -0.15714724103585    3.78160803536543
H          -0.23607934491874   -0.04317141742121    4.33714582006772
O          -1.32601996587517    0.74318147849273   -1.73014111130596
H          -2.10021028028644    1.04730429564739   -2.20515580640319
O           0.76313160219677   -0.86291427444436   -2.47933835438762
H          -0.00632070415414   -0.28833562030152   -2.29651421854722
H           0.65277829928474   -1.21006264916869   -3.36516255334616
O           2.41096607826329    0.27169455444355   -0.53101235875186
H           2.02513259682036   -0.14711852453356    0.26541189748106
H           2.08768907373915   -0.25303364205683   -1.27885432042081
O           0.01228320078725   -2.52783502346935   -0.30165081623792
H           0.41342902200848   -2.14839231915973   -1.09622164059742
H           0.34599724561405   -1.98567364760725    0.43587704209851
O          -2.16742957414137   -0.99465213275379   -0.08265024829744
H          -2.04118222933689   -0.74881173612779    0.85823881097411
H          -1.68056050601714    0.06949987421295   -1.04135712005041
H          -1.53683414807633   -1.73873126928743   -0.21337650497483
N           0.54077741114258    2.08971731108628   -0.28774840111099
H           1.40253006628865    1.48140212520527   -0.45892155081082
H           0.27757873135947    1.93240947970028    0.74588580621019
H           0.71998475610857    3.07027294562414   -0.47097450123931
H          -0.23422840138586    1.72140662407403   -0.87501549077783
