    26
        -50.46598143  Gyration_radius:  2.54753839908 Dipole_moment: 2.420
 S          -0.88208774226898    0.91882434087382   -1.80311219336309
O          -0.43852090894513    2.28732915165746   -1.92433283211987
O           0.22673893083944   -0.02254211792585   -1.65398699161819
O          -1.89368190280700    0.69837170831083   -0.78663989153396
O          -1.57522803266512    0.55533655676454   -3.18579928148974
H          -1.01716535256430    1.01543670828838   -3.80338576145213
O          -0.10351140601761   -0.23316087858025    2.51882882208714
H          -0.51128335375868    0.53078910493474    2.92945579278333
O           0.35342549425941   -2.55579003128796   -0.76271449022193
H           0.41897304836032   -1.74903143110512   -1.30788271769992
H           1.11346115189295   -2.50785741871121   -0.14543399827544
O           0.51883235791354    3.20588423463316    0.35551430931178
H           0.06883732095732    2.93351815325771   -0.47633468979938
H           1.05864750938745    3.96327499378346    0.12224203770241
O           2.15556831731070   -1.91512715639535    1.16554051428303
H           2.23945785715620   -0.98461979625469    0.91081136921896
H           1.72654681730783   -1.90873246927144    2.02497664245801
O           1.41614305710372    0.70235186164070    0.58600191803145
H           1.03875247496203    0.42404235985424   -0.27703801323746
H           1.24506517350689    1.66670889148409    0.62216049333740
H           0.51297350273334    0.13596084214339    1.82870535859625
N          -1.55845309135637   -1.45353170758684    0.62702131588285
H          -1.77826140287247   -0.60386881816128    0.02218190429381
H          -0.84425044688606   -2.04230560896119    0.07999240273238
H          -1.09112071498646   -1.08608758997427    1.49029560686330
H          -2.39985864853374   -1.97517387341576    0.84293237320005
