    26
        -50.47250316  Gyration_radius:  2.48722041776 Dipole_moment: 2.884
 S          -1.60824683372773    1.55484811925394   -0.37437815925705
O          -1.65901511451983    1.87476757768660    1.03939111144203
O          -0.53443401716241    2.26561734102476   -1.05777665001467
O          -1.57322140725816    0.13013993574740   -0.64364042197280
O          -2.96479683176352    2.08704369667277   -0.99585104989491
H          -2.98544796188209    2.97520048068327   -0.65648292739844
O           0.89149355474473   -2.59510606423258    0.24471349578493
H           0.98513212133562   -3.51209939187908    0.50323732241646
O           0.02008771460781   -1.47425450707219   -2.11787213245253
H           0.34441153435054   -2.04841818952237   -1.40008633852409
H          -0.75198272684842   -1.01465176153030   -1.73893828199930
O           0.25274957225520    0.75042750532736    2.36752908405158
H          -0.46209193156086    1.21839878726739    1.86128697295887
H           0.39697378158660    1.26914938442581    3.16030777369734
O           2.22660174436694   -0.24188377400214    0.75841040870276
H           1.92277535827942   -1.15927981495497    0.63480097862624
H           1.59944130914565    0.15334437521130    1.39315992032105
O          -1.13420891529805   -1.47946929649268    1.44300942549067
H          -1.47005258272865   -0.93552210956585    0.70243219426363
H           0.08673961736976   -2.24547168516003    0.72713224630832
H          -0.72086982268836   -0.84121799711246    2.04280936204767
N           1.45251983868537    0.66649178108931   -1.59693581838297
H           0.68531367971588    1.37662504625547   -1.41476521033523
H           2.14542692867598    1.03557103750966   -2.23763539608839
H           1.88217310246332    0.39332062966143   -0.66447475837085
H           0.97252825784417   -0.20357109629033   -1.97938312141595
