    26
        -50.47083182  Gyration_radius:  2.45211576181 Dipole_moment: 3.523
 S          -1.90199165729566   -0.31565283890367    0.80633587121263
O          -0.94088346789730   -1.39588621865324    0.59298255129458
O          -1.32864838492551    0.70552680192903    1.68005205642256
O          -2.44553810702060    0.20527158143690   -0.41899819650953
O          -3.11003014676880   -0.94949986310555    1.60715681185846
H          -2.70833736566126   -1.28695236218924    2.40173819390720
O           0.99215825129973    1.44722094656267   -1.25826116530884
H           0.23864387807140    2.06086628257498   -1.11632876148632
O           2.32726311512737   -1.51106049719421   -1.57464950680697
H           1.41659380219008   -1.50147406937836   -1.90345923658034
H           2.69014748403362   -0.64674344010075   -1.78187732425256
O          -1.28752920950712    2.59796459676657   -0.46083657937646
H          -1.83114520312959    1.79276956644843   -0.57237455183085
H          -1.31267649594983    2.76687775239478    0.48427523752246
O           1.70200305581483   -1.83366429450071    1.04777643844296
H           0.74370739659080   -1.97021456842637    0.95246682071595
H           2.06243385530004   -1.90051934865038    0.13940052567800
O          -0.33911272516022   -0.83237113226685   -1.90080156712768
H          -1.17611094868458   -0.55519643081858   -2.28329126828165
H           0.57423875114308    0.63953938051331   -1.62341682859198
H          -0.57748320244043   -1.12846275464512   -0.99364795092701
N           1.26522911773241    0.73878566462978    1.25538201425062
H           0.24707523066799    0.75956844643577    1.53501131967399
H           1.57411138821314   -0.28524893475506    1.27256922100185
H           1.29816558105695    1.08121264666214    0.24403563806557
H           1.82771599720505    1.31734309725269    1.86876022704446
