    26
        -50.47116961  Gyration_radius:  2.45861678327 Dipole_moment: 2.500
 S          -0.85241771416050   -1.30086682957982    1.64407744685228
O           0.45817207680657   -0.68712324310205    1.90677095941856
O          -1.93675408086449   -0.54557659294252    2.20257452524469
O          -0.98574062517605   -1.61257573517945    0.23061117939700
O          -0.83306533266382   -2.69186763998248    2.41597623483066
H          -1.55181948569399   -2.58599705447284    3.03108995334681
O          -0.21738786750666    0.94187323184350   -2.55004799399457
H          -0.60790535176767    1.28160817371014   -3.35547881245642
O           0.70206483845751   -1.56784655654791   -1.86157799561313
H           0.01874461630006   -1.77825838318339   -1.19477554020109
H           0.37486939404444   -0.77130575696101   -2.31751080181990
O           1.39899214372806    2.07863958802855   -0.65439692029811
H           0.86705821490479    1.82786477148359   -1.43367367135970
H           0.76464510946266    2.22351319168282    0.06353275190504
O          -0.49890720428060    1.73369183980747    1.38528401407779
H          -1.16884248463990    1.92787485351546    2.04507242753684
H          -0.12858646597869    0.86836700647874    1.65769850582374
O          -2.00041556315141    0.67626603661325   -0.68304094058390
H          -1.65711838301973    1.22499116202760    0.04252650768954
H          -0.96531972945975    0.85211843607182   -1.88899041860618
H          -1.84968414692331   -0.23853549291166   -0.37976778353547
N           2.17168156852990   -0.37715430153388   -0.05837108541264
H           3.14380370760866   -0.61219693400260    0.10250084049271
H           2.03709024239183    0.65185012450977   -0.28502956453238
H           1.73691929166803   -0.94062511094145   -0.85721845124640
H           1.57992321138788   -0.57872877443416    0.79216462304001
