    26
        -50.47116908  Gyration_radius:  2.45863351905 Dipole_moment: 2.520
 S           0.10479624360651   -2.26060159538575   -0.02823228329737
O           0.34561570488682   -1.60888528470331    1.26826801836419
O          -1.25194196625758   -2.70189908403655   -0.17928601826807
O           0.60309797293948   -1.42636027479280   -1.10906747716135
O           1.00277191622910   -3.57396222968085   -0.01781840348341
H           0.34754681405480   -4.26106673634432   -0.08680816813170
O          -0.24537117856617    2.32045435695726   -1.41233906496038
H          -0.54469179075396    2.94777803923204   -2.07076364860274
O           2.06645285377210    0.82664315811266   -1.20931022067572
H           1.36820660905186    1.46365161300908   -1.44619990667499
H           1.66523058753002   -0.05415385433954   -1.34739549667338
O          -0.61635804196168    2.15556981042346    1.29633243924805
H          -0.55242071098430    2.39226256787778    0.35138625372372
H          -1.27431619243021    1.44612241312210    1.34760891777573
O          -1.95975949780143   -0.30177789362426    1.11236054255807
H          -1.13944240856412   -0.82208649290263    1.24103383745224
H          -2.66358808524265   -0.95480225994188    1.12038361242007
O          -1.54154816515127    0.07937947782978   -1.59514662398100
H          -0.77687580980633    1.48323788752226   -1.55716583207747
H          -0.82049954042115   -0.57720975366997   -1.61857049947203
H          -1.93383479082748   -0.03204048963554   -0.71254901467500
N           1.58951053994427    0.70169728409564    1.35694093681852
H           1.95637517629653    0.82334215138893    0.35929288655446
H           1.19153284505789   -0.27497784353558    1.40064083000137
H           2.30768931310446    0.84089735771841    2.05762930326790
H           0.77182161227367    1.36878767531053    1.47877506994274
