    26
        -50.47168674  Gyration_radius:  2.4909992807 Dipole_moment: 3.017
 S          -1.12658624167135   -2.00284904692790   -0.15499605178433
O           0.08549558017283   -2.62176190368853    0.37076753462521
O          -1.46353530852527   -0.80587106245502    0.61207321799205
O          -1.08843749330782   -1.76473767665746   -1.57540506255762
O          -2.29096091616607   -3.04285790935033    0.10257179896214
H          -2.16374898410203   -3.24050172322534    1.02409232228969
O           0.21433989099380    2.63566090187807    0.60471553355087
H           0.05442113979422    3.57766956347800    0.66359872830773
O           0.13494130275784    0.26933220250529   -2.60395690472403
H          -0.30534305238479   -0.53956845095058   -2.23709207304139
H           0.25535233752549    0.10263418451969   -3.53974497903210
O           1.98971120583024    1.04112004615800   -0.76776982943177
H           1.41298200204505    0.77312879350330   -1.50862408068438
H           1.50082095466631    1.74672316020135   -0.30648143164454
O          -0.06252113565744    0.59680689014390    2.43125671692228
H           0.02194571898769    1.45024163942796    1.96854193861607
H          -0.73909713750131    0.10602125370293    1.92517938869156
O          -1.63355935554452    1.45743621066576   -0.79814049605829
H          -1.17398336127313    1.21125306405364   -1.61413337814509
H          -1.72560421902372    0.62032446698553   -0.29855896804064
H          -0.54286544146944    2.25294493177248    0.07164015700983
N           1.75911493697421   -0.77583662635718    1.13270847216632
H           1.15623144459341   -1.58034220761967    0.79301994576150
H           1.96688697135554   -0.11858893664221    0.32334412832655
H           1.15289379093632   -0.23117281896654    1.81884067529702
H           2.61110537000396   -1.11720895608963    1.56255268666627
