    26
        -50.47168670  Gyration_radius:  2.49100153764 Dipole_moment: 3.016
 S          -2.28498048702821    0.20736219252148    0.20129433219822
O          -1.42368372269354    0.50234904725646   -0.94143504846195
O          -2.30071856282383   -1.22615309297189    0.47219309646259
O          -1.97892765478685    1.01365514537568    1.35536898775188
O          -3.75799171340744    0.58130518908687   -0.23928204176679
H          -3.92445217762088   -0.07339637259315   -0.90870029139844
O           2.39840559454253    0.48848370853229   -1.16944780334888
H           3.15447484342902    0.92731949852971   -1.55959427641071
O           0.36676317880807   -1.01171435746946   -2.26137332771845
H           1.18620457816742   -0.51861959035469   -2.07446852220872
H          -0.35298664459936   -0.40764262660888   -1.99342406358397
O           1.88389273511299   -0.73773861641785    1.24084592726238
H           1.42043352304915   -0.00442908659030    1.68902158855290
H           2.25687039599859   -0.34583996595590    0.43027570599973
O           0.44321895776585    1.36582843209389    2.19277998785846
H           0.40264188770931    1.70293145417037    3.08870988565672
H          -0.49627694605350    1.21264918890864    1.91601498785140
O           0.57689216857919    2.20881090883614   -0.46691949885159
H          -0.23358185450905    1.70779359946477   -0.69269576532972
H           0.61629995234044    2.19585608101372    0.50049688311886
H           1.73825669076504    1.20825428917104   -0.94542000422796
N           0.06536995348837   -2.22986862561040    0.04402142695468
H           0.22944926007256   -1.92594096294719   -0.96367892112636
H          -0.90683267624545   -1.88525234989116    0.29331395096959
H           0.13384150298489   -3.23481143600775    0.15630697763370
H           0.78741722701824   -1.72119166152908    0.63579580606371
