    26
        -50.46132349  Gyration_radius:  2.48137520445 Dipole_moment: 7.389
 S           0.41884749317910   -2.15553899295415    0.44889131953418
O           0.50911221123629   -2.61215133670042   -0.91294898849479
O           1.66813357493725   -1.57311667713064    0.94280537048518
O          -0.69776387092909   -1.25792601760415    0.71193910125100
O           0.15609563389044   -3.45051022857002    1.32671372485805
H           0.45463171476706   -4.12709539499361    0.72868508654585
O           0.94601827131333    1.68398641398037   -1.42986454305699
H           1.43851896014763    2.09952851543889   -2.13828592950353
O          -2.38270110003226   -0.21312545882452   -1.21660960160322
H          -1.98004504517529   -0.71248382401382   -0.48960118624238
H          -2.33552878741270    0.72241095828197   -0.94467513230577
O          -1.57664532776084    2.23764362684729   -0.23473565812719
H          -0.74149248948930    2.21564397045895   -0.72221757829668
H          -1.37881760719756    1.91484720191926    0.65532073294455
O          -0.73602373583299    0.91262809298107    2.12693394726082
H          -1.24462912671921    0.77820597725933    2.92738507527800
H          -0.77845571605790    0.05684640282924    1.62333332268019
O          -0.01877083951301   -0.45683207274334   -2.41004939248597
H          -0.97856038531552   -0.37876921519603   -2.19117420861906
H           0.57572512259221    0.81760875206172   -1.82781505405425
H           0.25823014186886   -1.28438423622276   -1.97239240693509
N           1.70680373504927    0.98276401891758    1.00850831130126
H           1.50698055335044    1.31877639107778    0.02861528562618
H           2.56216032544094    1.38181764048290    1.37846811382765
H           0.88863231634378    1.19965236273327    1.60599775394860
H           1.75954399736628   -0.10042687028035    0.97677251419199
