    26
        -50.45187022  Gyration_radius:  2.55854261772 Dipole_moment: 4.375
 S           2.14580341603248   -0.81844445572756    0.54697082525525
O           1.30791863581929   -1.14558264035064   -0.61204580841861
O           2.41589285942587    0.59248515861654    0.64795699151023
O           1.61801016226165   -1.43315889022776    1.75477398850031
O           3.54679868350580   -1.52428837958866    0.28467342641908
H           4.04051681178841   -0.88617643274685   -0.22257922293059
O          -2.02359564886588    0.07763152831224    1.28873006190718
H          -2.50455892343316    0.29202325265225    2.08891243255536
O          -2.49825730573270   -0.07412740204570   -1.43888855480389
H          -2.93988948549802    0.70852681200870   -1.77401482986645
H          -2.41585122160979    0.05149472134867   -0.47942834623915
O          -0.08040887874926    2.86185319013996   -1.07856012539874
H          -0.02406040850818    2.03546386493769   -1.62143105942874
H           0.76903320296055    3.29431313482744   -1.17684236003824
O           0.06208176835312    0.52535040502616   -2.32576249158876
H          -0.83892991796197    0.18944714509472   -2.17747672389375
H           0.63671446584208   -0.04100410406659   -1.78127138858007
O           0.01466332685100    1.60555254358336    1.27431955702760
H          -1.20677992327040    0.68680746458083    1.29034869733930
H           0.90953764364721    1.22791573768428    1.17727844983089
H          -0.09671062009814    2.17596419856478    0.47703163023193
N          -0.61392030454919   -2.11856179857303    0.77555904597618
H          -1.31249648202101   -1.36779143149708    1.00246798742563
H          -1.01966368661524   -3.04694912221970    0.75004266210074
H          -0.11204857069442   -1.85834194273314   -0.10907896590396
H           0.22020037112375   -2.01040252760273    1.43831412101680
