    26
        -50.46053029  Gyration_radius:  2.50794692515 Dipole_moment: 6.055
 S           1.17199956360369   -1.41738387799359    1.05987939746886
O           1.79875479498904   -0.26933081045787    1.71395596848259
O          -0.26970255556261   -1.41884360439901    1.28042493120689
O           1.53726031201241   -1.51561190038912   -0.32849650567132
O           1.73160420377939   -2.70191779461504    1.79447231426103
H           1.48459984283405   -2.53362425171951    2.69817440425464
O          -0.29885699711971    0.94111467590918   -1.89545698757957
H          -0.36906566115572    1.37253046349068   -2.74770532900512
O          -2.10708635666163   -2.25655772766065   -0.47523310032511
H          -1.43751341873282   -2.10175140167113    0.22061978012962
H          -2.80545023514797   -1.62112311492525   -0.30230837611214
O          -0.45863991643411    3.03206415532944    1.29288209966324
H          -1.00501697306086    3.75402275343753    0.97971054196458
H          -1.00247131296946    2.20861769220380    1.19227052741327
O          -1.63158712769065    0.78303047490453    0.57133970802056
H          -1.36271464759458    0.81463100377451   -0.35926028102504
H          -1.17390487425376    0.00474346449829    0.94754321454347
O          -0.23481587665039   -1.57855044118961   -2.30249332409693
H           0.52072626562449   -1.73253475774753   -1.70131312689646
H          -1.00476972539840   -1.94640492196500   -1.82187351773832
H          -0.27975294100412   -0.05687818203239   -2.09640156678014
N           1.45645518686591    1.66042607985564    0.03989197191182
H           0.91041669765788    1.30107826515756   -0.77715573217421
H           2.33335130772583    2.07400508068833   -0.25784574070113
H           0.84812306932240    2.35162877651868    0.54707465402833
H           1.64805739501909    0.85261989098923    0.72730408476074
