    26
        -50.47126129  Gyration_radius:  2.42917972956 Dipole_moment: 4.306
 S           1.66797807066758   -0.12247438159920    0.92394099160828
O           0.82607584439074    1.04562070244828    1.16051562853590
O           1.48249401753679   -1.12352334253801    1.96424084537124
O           1.50785765097777   -0.65129569681881   -0.41182973023125
O           3.16468225955665    0.36589352552922    1.04475835912403
H           3.26549558404028    0.46623003145569    1.98531186462938
O          -1.83322222055684    0.08263750317720   -1.69419733718538
H          -2.44977775342970    0.30572993211585   -2.39202526057612
O          -1.78202953351748    0.48806046911085    1.01342310743869
H          -1.93071091585110    0.44432541597618    0.04985162945485
H          -0.87242834174230    0.83439064788329    1.12257142845698
O           0.76746847336272    3.13350067432545   -0.48563885514407
H           0.87488217172325    2.42184109517838    0.17813093573256
H           0.03997180638503    3.67712795566943   -0.17858109547373
O          -0.53960405709601   -2.27316753453986   -1.12957820270808
H          -1.11276477134226   -1.56302703027014   -1.47516437497635
H           0.33980867345452   -1.85893169975707   -1.05823062546938
O           0.50116482765537    1.06441552525140   -2.23115383088266
H          -0.95551399014565    0.50075153736141   -1.95090254255065
H           0.62290310588910    1.93149384515561   -1.80072333016882
H           1.01962057698517    0.44180436799260   -1.68833448208143
N          -0.93971014947813   -1.95169356059163    1.43532410042255
H          -1.39744127154435   -2.63109017275556    2.03222608271068
H          -1.45266586401930   -1.01658271790375    1.40028898883472
H           0.04127810560313   -1.73292522698556    1.76359413183196
H          -0.85581231950531   -2.27911184485613    0.42218157329548
