    26
        -50.46690450  Gyration_radius:  2.50963920349 Dipole_moment: 2.770
 S          -0.09027361837136   -0.58825858696846   -1.77092425103584
O          -1.41757345599282   -0.76434416714091   -2.30410885713853
O           0.37571475615231    0.78006002036937   -1.71178234507250
O           0.08801760574940   -1.26386427107627   -0.48403747325927
O           0.87954361815940   -1.34169278199829   -2.79265576748572
H           0.28594498095883   -1.95974760971582   -3.20583783555705
O           0.09948678065540    2.11057742189926    0.61692019534828
H           0.14790732836922    1.93266781273483   -0.33912571426976
O           2.87720870539001   -0.04642292555004   -1.17949084024700
H           3.08150973661145   -0.65934078062813   -1.88709230053051
H           2.03611834944049    0.36731597666745   -1.44110064317031
O          -3.32235844954728    0.30796207808394   -0.77463302578519
H          -2.65044670040416   -0.02483010440389   -1.40603648803611
H          -4.13912293469195   -0.14108292127517   -0.99822088779481
O           0.10898674915445   -0.33051530594250    3.40741722040368
H          -0.09264288073702    0.34178847839710    4.05999433043959
H          -0.62159741389360   -0.31014537462084    2.76417397380612
O          -1.55513835925895    0.01632165991393    1.22455389291161
H          -1.03692328599831   -0.57285164142950    0.64428543418100
H          -0.68023999373680    1.60794125513348    0.92257761542393
H          -2.37041555694544    0.18581461847471    0.71586200382045
N           1.63519370286322    0.06451350935926    1.21290890371038
H           1.13406339373575   -0.58106487931057    0.54836235478809
H           1.41123619130580   -0.21088800024604    2.18460943952271
H           2.62176621112729    0.06064137963512    0.96144182072542
H           1.19403451991637    1.01944514963758    1.03193924430141
