    26
        -50.46262720  Gyration_radius:  2.62444941183 Dipole_moment: 2.008
 S           2.44272071680413    0.45149415370536    0.52610128747082
O           2.76451112106186    0.38285800707143   -0.87821216839930
O           1.14721842180698    1.10304846040180    0.75137475229859
O           2.53857103867922   -0.82147919541928    1.21525228103850
O           3.50738546468369    1.42152479055952    1.20468239874034
H           4.33789707401524    1.06320996859511    0.90728484030682
O          -2.76560580459281   -0.02518500660680    0.04342005668331
H          -3.62231334777261   -0.16159173936780    0.44876276824623
O          -0.91950965477484   -1.71215598141277   -1.16252219161612
H          -0.43201822590030   -2.02841471502599   -0.37598874486150
H          -1.74175823322194   -1.32021623628327   -0.82418196860916
O           0.41195571347017   -2.28199304313822    1.13840832119006
H           1.23963457976890   -1.72826048708221    1.16287563519757
H           0.68609601258567   -3.16414029058731    1.39362481964191
O          -2.11036675153390    2.02378628675450   -1.62513210563405
H          -2.06310065824918    2.79076558765629   -1.05155785819805
H          -2.47495229249876    1.29633362529109   -1.08009719863718
O          -0.97361706279823   -0.02738449463871    1.93085912271389
H          -2.10567501531738    0.03219685227543    0.79600679066524
H          -0.62604960113691   -0.93246137848303    1.90312012747189
H          -0.21756699044032    0.52111927001927    1.64292101343248
N           0.19404474496531    0.63451997715048   -1.64346335595769
H          -0.18127170433819   -0.35944424385856   -1.57897984256145
H          -0.58662749968022    1.26929797673202   -1.91148866180086
H           0.54200777518166    0.89908896266222   -0.68041452312149
H           1.00839019925947    0.67348289304237   -2.25265559573374
