    26
        -50.46975338  Gyration_radius:  2.44452666871 Dipole_moment: 3.635
 S           0.97379695696459    1.58846168859190    0.33612760280142
O           1.29267939536444    0.31696324035969    0.95680949116482
O           1.77565865930303    1.88228248002519   -0.82565513010201
O          -0.46466406564608    1.70063415327440    0.08274219752740
O           1.29702249466812    2.72503473895576    1.39550964221131
H           2.10145569024090    3.07780300878294    1.03165417056096
O          -1.09770403864300   -2.35781151232397   -0.15728196896801
H          -1.71308838212873   -3.07801285068048   -0.01826390951569
O           1.70570012852840   -1.83897948843267   -0.64410742471173
H           0.86802389077122   -2.29713283848874   -0.49924948917230
H           1.72801331113308   -1.12548913638054    0.01799695592343
O           1.33827543255786   -0.07713240689763   -2.59163165600132
H           1.67355959410290   -0.83320329832549   -2.05563415944202
H           1.62767136878272    0.71830198845513   -2.09890135923197
O          -1.97766114994315    1.20415508868093    2.21513661659850
H          -1.70660748896369    1.80009563939084    2.91517343127421
H          -1.47541523964720    1.47488487870498    1.41972907919174
O          -0.64073247833779   -1.15346241293434    2.08126592575083
H           0.16769244689464   -0.67421211427088    1.81480993084646
H          -1.29264657963954   -0.44674116246347    2.25178784337195
H          -0.94651406919410   -1.93924524125194    0.74647152633639
N          -1.07949983748172   -0.14021508474364   -1.68871912918488
H          -0.12563413248061   -0.15355776334452   -2.21505249596491
H          -1.85882703084519    0.03741646318969   -2.31240156497431
H          -1.19688884120882   -1.04358108343618   -1.17657269661966
H          -0.97366603471679    0.63274302529837   -0.98174343037974
