    26
        -50.46975348  Gyration_radius:  2.44487581832 Dipole_moment: 3.655
 S          -0.02252761856040   -1.79333167157630   -0.62139596707663
O           0.54205548399109   -0.69517337614683   -1.38239499816502
O           0.95646672709307   -2.54174848575990    0.12729754740929
O          -1.14588991975936   -1.33613538282903    0.20020728644627
O          -0.65681362916167   -2.81122056213099   -1.66048751239189
H          -0.00951406835961   -3.50722278746276   -1.63874175127085
O           0.19047486933976    2.55486762409962    0.46121185830938
H          -0.05405803449700    3.47638409814271    0.54903738544248
O          -2.99522528819948    0.04804177669136   -1.12062610715032
H          -2.39132982819359   -0.51955112604326   -0.59938431818451
H          -3.32862833742098   -0.50184958057267   -1.83132603053630
O           2.43540137724040    0.86040036121573   -0.20921418446656
H           1.88634270852682    0.29701857091441   -0.78285960751990
H           1.89634992987947    1.63991601035439   -0.02380792485113
O           2.13026835703521   -0.82931957044523    1.81107746372154
H           1.83198321857524   -1.60071034730637    1.28630477730125
H           2.52147823349909   -0.21671179564034    1.14526407293776
O          -0.83243988484938    1.58028432226796   -1.70035257808885
H          -0.21869135598942    2.23679429022057   -0.40278417128660
H          -0.27993442384609    0.77708583709894   -1.76167691452021
H          -1.73409133034236    1.23977285866051   -1.54299003170481
N          -0.16276065393398    0.34615754713305    1.96474177233792
H           0.82439256443689   -0.10614512976305    2.05698482554464
H          -0.63194652545103    0.42744742899437    2.85983139827059
H          -0.06672102554373    1.27590467148515    1.49707241250888
H          -0.68464154551190   -0.30095559154300    1.31901130702532
