    26
        -50.46875465  Gyration_radius:  2.498472677 Dipole_moment: 1.335
 S           1.66561183486992   -1.36941230764499   -0.16523278649668
O           1.37354716928939   -2.25836051040881    0.94836176126494
O           0.50552245957334   -1.21760561564127   -1.04030861499677
O           2.22935451989817   -0.09849182364534    0.23111750108152
O           2.78324281856543   -2.09634446713023   -1.02479266871131
H           2.49715590872530   -3.00451611964528   -1.03920219477753
O           0.50208704824379    1.24198430778728    1.78037534752453
H           1.26511536683450    0.83546717270295    1.32175331607553
O          -2.69327224951397    1.15629998230619   -1.05194509250715
H          -2.66538140877119    1.16182105080869   -2.01027371823235
H          -1.95071429418961    1.71405444020206   -0.75221758903156
O          -0.44322988750337    2.56823217654398   -0.43086645166441
H          -0.28981157699846    3.50326692654841   -0.57190410573574
H           0.18468543835946    2.08023060493047   -1.03810421976064
O          -2.03864138439937   -1.31458336088377   -0.17845282749284
H          -2.40938995616449   -0.45336746804049   -0.46586033700364
H          -1.18364114171564   -1.39648208311812   -0.64439378144114
O           1.21131498374837    1.17113500991002   -1.88963798334465
H           1.96299969848949    1.08612825498138   -1.28504255976018
H           0.80938150041863    0.28172075938102   -1.82770070598166
H           0.07420180112136    1.80340063607764    1.10804888082676
N          -0.69846990930988   -1.08251916616248    2.03942564442140
H           0.12852967214856   -1.66832747934135    1.74423033542955
H          -0.33801956290653   -0.08374385096654    2.07131133933210
H          -1.40766736940481   -1.17655044200782    1.24002519596658
H          -1.07451149940091   -1.38343661756238    2.93128632501200
