    26
        -50.47229220  Gyration_radius:  2.48055350495 Dipole_moment: 2.000
 S           0.27458139142854   -2.20571936029374    0.50025039386700
O          -1.07383778709475   -2.54974035161655    0.09199655824076
O           0.94855489584660   -1.37629678739509   -0.49374574304824
O           0.35829790147361   -1.62670350443825    1.82564493366984
O           1.06697987153541   -3.57702972842528    0.56073499030917
H           0.66526032439257   -4.05589378942623   -0.15632242683882
O           2.35318755856550    0.91605485983303   -0.35776684116184
H           2.03879811422526    0.00661959382840   -0.52514849364297
O          -2.42897655754124   -0.34375989662038    0.02702023695248
H          -3.31737869506924   -0.53106059769081    0.33418824239945
H          -1.93005040280349   -1.19710810843227    0.10251525614311
O           0.24863101852601    2.19200392657886   -1.61027722891544
H          -0.11693461699509    1.31143453468158   -1.91373902297485
H           0.22512099147194    2.77217820598404   -2.37140841504954
O          -1.15702402406484    1.97345613663331    0.74653519734767
H          -0.73343156349693    2.23330011135264   -0.09147239457178
H          -1.68924674278312    1.18370365297355    0.53329555775389
O          -0.71176821960516   -0.16213245633870   -2.18085055597052
H          -0.07756082804155   -0.70933072235870   -1.67208887760028
H          -1.53563971104502   -0.21419946138979   -1.67714142473698
H           1.76909672298233    1.48344651951900   -0.89259347837222
N           0.97550655430895    0.91087274045137    1.87495786224049
H           0.75011743246863   -0.12147510811112    1.94503942103112
H           1.67845978583204    1.00832222103943    1.08063639151285
H           0.08949978663129    1.41005076507241    1.56576822533171
H           1.32975680865296    1.26900661476037    2.75397165604056
