    26
        -50.47229280  Gyration_radius:  2.48043346279 Dipole_moment: 1.998
 S           1.62944831382466   -0.45970930411819    1.52525071323254
O           0.81612597663585   -0.03222383988594    2.64720468590675
O           0.89708344117810   -1.35289648976925    0.63282821845393
O           2.25157706894106    0.62943607215197    0.80028769353586
O           2.81063064834954   -1.31161335426512    2.15053801122916
H           2.36644219328733   -1.74530491881649    2.87129691664536
O           0.54433545785526   -1.43550504005303   -2.03448153329554
H           0.73842965758899   -1.63449612046655   -1.09810920299536
O          -1.10139260333868    1.41249285344285    1.67612532242769
H          -0.34009118462966    0.90548800917893    2.05841180137952
H          -1.27265252196500    2.13002846578031    2.28808158753290
O          -1.15306802433814    1.84386400865394   -1.02871308152289
H          -1.61838976241825    1.04899946059008   -1.34636582512648
H          -1.16717870787970    1.78013972464649   -0.05494797883847
O          -2.08026985212657   -0.67574663848903   -1.63707362795142
H          -2.90074313873510   -1.04414864010706   -1.96504236435697
H          -2.01851824777338   -0.93446522762156   -0.67252512701609
O          -1.74607810021205   -1.20047053736405    0.89328223653520
H          -1.82596023991349   -0.34161962102242    1.33052091572837
H          -0.41967559732239   -1.29751809625730   -2.06474406433620
H          -0.78307905336990   -1.38220183486875    0.88215238557389
N           1.29294643978989    1.03999410486987   -1.59447500691025
H           1.75685689573942    0.92272504914147   -0.64977282393904
H           1.09087007591167    0.05660698175261   -1.95064785528897
H           0.35250427104045    1.50789580326908   -1.43154533977072
H           1.87984662379918    1.57024909960098   -2.22753665681526
