    26
        -50.46262641  Gyration_radius:  2.62414886653 Dipole_moment: 2.013
 S           1.92607696829472   -1.44002431292623    0.81427194523793
O           2.48764642177130   -1.45143871559590   -0.51427644966992
O           2.40022966123921   -0.34977608508245    1.64538874676431
O           0.46045673650310   -1.50828981845856    0.78132477394230
O           2.37973973130766   -2.79090278848896    1.52455894277107
H           3.31787691501615   -2.80819655058386    1.36240433151526
O          -2.48619479915381    1.16352590942728   -0.34186415005102
H          -3.27224260118116    1.62478275282303   -0.04818907629664
O           0.05754573663403    1.98573371148305   -1.08854749257766
H          -0.89770109730011    1.95393614474877   -0.91314900258293
H           0.48734075765007    2.04045795017744   -0.21187886220114
O          -2.42814762222927   -0.90484924078294   -2.11140828361066
H          -2.55938765669769   -0.11414939974493   -1.54869330938557
H          -2.78881440156645   -1.64575501288674   -1.62108881752295
O           1.08731477776951    1.86092913342371    1.42451884425360
H           1.60546237027970    1.01405450661920    1.50632546955490
H           1.64368985167502    2.53996083279315    1.80901669972146
O          -1.19813952044826    0.34770711332274    1.76720709291098
H          -0.51827816760846    1.02908779004359    1.88662710668876
H          -2.04495372225752    0.80774449791732    0.48517965051542
H          -0.68752390474488   -0.45142628304611    1.53041923350719
N           0.20535660434480   -0.58906000578960   -1.65859147648263
H          -0.70534345906130   -0.83391212202884   -2.10011672310750
H           0.25344122743958    0.46779820866621   -1.54012514464569
H           0.24699745752275   -1.01323136660965   -0.69062166026810
H           1.02755173484205   -0.93470686945893   -2.14869240895514
