    26
        -50.47229183  Gyration_radius:  2.48004957527 Dipole_moment: 1.990
 S          -1.32996258624953    1.50198841861145    1.08182796406990
O          -2.09633560886576    0.46704819174931    1.74797554129155
O           0.10701657212749    1.26935151354168    1.19455994444494
O          -1.72952738133645    1.73949532494063   -0.28998734765427
O          -1.63275365126735    2.84246556693847    1.87100573598382
H          -1.64667214895607    2.53204987419245    2.77009805988603
O           2.27620445798239   -1.47502844921656   -0.30602354398679
H           3.02003523631623   -2.05158553684194   -0.13041739667267
O          -1.67943406054579   -1.73348366117716    0.44885261913618
H          -2.49906569303647   -2.23022655252850    0.43362895920794
H          -1.88572856526826   -0.88425086353159    0.91701924175724
O           2.12924628741382    1.26785388806310   -0.58153613293799
H           2.39454139552390    0.33308491039400   -0.51027269782015
H           1.53814166821788    1.41832875035907    0.18137983764637
O          -0.05780738048332   -1.64520169825135   -1.75689897000197
H           0.82519147998076   -1.73704267060388   -1.35574765658138
H          -0.68886030573090   -1.74174877341887   -1.01863386503718
O           0.73672874609288   -1.24752274674477    1.78395008211118
H          -0.08247531978426   -1.69434061929044    1.52999338006521
H           1.74830592065004   -1.42698108585807    0.54255549134543
H           0.52818131218818   -0.29253750508361    1.71303234653952
N           0.00218488380018    0.96933189318401   -2.08756396063249
H          -0.73898762351222    1.33498058546081   -1.42562707927909
H          -0.08328763303955   -0.09007360830537   -2.10712666154859
H          -0.09532677361703    1.37857552012075   -3.00921196495622
H           0.94044677142787    1.19546934328297   -1.63683192638587
