    26
        -50.46085917  Gyration_radius:  2.53266633692 Dipole_moment: 4.742
 S          -0.72901827493865   -1.61243443298330    1.11498924000492
O          -0.03394823493497   -2.32342680330277    2.16805444574067
O          -0.95411686786092   -0.20649863970063    1.49363334890917
O          -0.08781303614664   -1.71414945152608   -0.17306794227041
O          -2.16417023581672   -2.26153526072608    0.97941932442938
H          -2.46320632890531   -2.34397863056357    1.88033224366975
O           1.23463515762177    1.88786769196527   -0.94703952942682
H           1.89902107573885    2.30389625692650   -1.49711979772876
O          -1.53532007768257    1.92758187299366   -0.09255629628848
H          -0.62679535782583    2.15329686358065   -0.33010413804106
H          -1.47149255200796    1.16286882710783    0.50689032983418
O          -2.27624187927484    0.91907989206530   -2.46728115276406
H          -2.16617266509245    1.29568621803457   -1.56518293189592
H          -2.59704769816040    1.63164236312486   -3.02114884539003
O           2.33223249540716   -1.89006843407377    1.12635967114216
H           2.09029667107975   -2.12868852892929    0.22450004607956
H           1.56984553116476   -2.21292567366235    1.65981594472744
O           0.23754601592754   -0.06729551560929   -2.25719457494187
H           0.85540704466165    1.12051405743824   -1.50168494135263
H           0.11519336885900   -0.75816624095415   -1.57757276251319
H          -0.67216043505283    0.19871153022296   -2.50188196431330
N           1.51238900601255    0.60424757355854    1.36799142083669
H           1.54983138684387    1.15774706600933    0.47316895379788
H           2.00555586686834   -0.33317382153389    1.25867851346362
H           1.88723152900520    1.13216122388635    2.14913075514657
H           0.48831849460686    0.35703999668667    1.52887065911936
