    26
        -50.46309154  Gyration_radius:  2.44662166973 Dipole_moment: 4.784
 S          -0.27430343797047   -1.92489109504269   -0.38860003226186
O          -0.63391985219541   -1.20927800128567    0.84527796770938
O          -1.41187768190471   -2.30821408771718   -1.17412920998639
O           0.78704782805067   -1.23976981268308   -1.09356004013391
O           0.40042798566956   -3.28861578892417    0.12668586112590
H          -0.32512348992598   -3.90489987949861    0.15924522886688
O           0.54949195190001    1.52469936031406   -1.46780294497689
H           1.11566306082949    0.95796418801742   -1.99899070864175
O           2.87404396953008   -1.37062977077736    0.50318813305983
H           2.82862006532405   -2.22261690197165    0.94040083175655
H           2.21367467368611   -1.42051770907200   -0.22321760071712
O          -0.46638976321268    2.94682548004547    0.78877666213472
H          -0.18857705412116    2.74839635311498   -0.11651893420118
H          -1.00927857160142    3.73543840907344    0.74011926601600
O          -2.40949622076549    0.87371933518909    0.96905584543305
H          -1.93133706778946    0.04240326716284    1.11591937374539
H          -1.76548383234250    1.58604059268816    1.10039392840470
O          -1.77841704142884    0.34979542676230   -1.60621405755239
H          -2.24473731498307    0.58164822685869   -0.77598810132242
H          -0.35469877947369    1.10992282457727   -1.57959585094008
H          -1.72211629507221   -0.61898149731121   -1.61455090388324
N           1.16966199744700    0.63591827208908    0.98100899666305
H           2.05658302288309    0.09736348177440    1.01155574632985
H           1.03347730715903    1.04016012632324    0.01149291094380
H           0.39359467147054   -0.09033084019102    1.06522056383597
H           1.09346984884245    1.36845005047481    1.68082708858022
