    26
        -50.46309158  Gyration_radius:  2.44662006016 Dipole_moment: 4.787
 S           1.37666206664963    0.44851509291498   -1.35452618058980
O           0.55970622248654   -0.77311272631002   -1.29100796697404
O           1.01488378210412    1.31698259392092   -2.43747836976840
O           1.48778803183923    1.06534077240454   -0.05077863577673
O           2.85863659132473   -0.08221990017322   -1.67573541712294
H           2.91121233888971   -0.05154038379290   -2.62633662562204
O          -0.84898809633909    1.39329438298860    1.45581762058340
H          -0.04404964355067    1.89843926973021    1.59977468762011
O           2.81676425935122   -0.66638577392950    1.41842460829276
H           2.47433201207027    0.10443791343862    0.91388878681209
H           3.45561054204393   -1.08146963131731    0.83650311032672
O          -2.17547483740625   -0.82227187388690   -1.44969361954372
H          -1.22802972984865   -0.98318025718422   -1.58265948653085
H          -2.35647089694489   -1.01253607338186   -0.51673778989963
O          -2.64688765377861   -0.82079147983732    1.35842969986412
H          -3.60186912730629   -0.75345007983300    1.40831619624062
H          -2.30014114481618    0.06798783296404    1.51954269312219
O          -1.31433421297983    1.71518900068850   -1.09379754638940
H          -1.06125087775814    1.57501815054043    0.49465467016247
H          -0.50844578388142    1.74049344978113   -1.63377766423373
H          -1.80083582167770    0.91394999715101   -1.37961365539857
N           0.17743702285538   -1.07135546160548    1.24688804164095
H           1.14167207107777   -1.15019462893763    1.62334664152239
H          -0.20408881948481   -0.10395275046371    1.44806416030983
H           0.28459813608811   -1.08690530779730    0.18622230580707
H          -0.46843643102200   -1.78028211807274    1.58226973553992
