    26
        -50.46214906  Gyration_radius:  2.46057527862 Dipole_moment: 6.831
 S           0.89152021949189   -0.83726133110186    1.63212341963537
O           1.43671424659426   -1.26687832291687    0.34870768334286
O           1.26510819345811    0.55623252548444    1.88631044171930
O          -0.51790608028108   -1.08729619861784    1.75529069985767
O           1.61729531513851   -1.68936412689963    2.74568407643897
H           2.51777439100459   -1.40299377170929    2.64273284568850
O          -1.31803144313991    1.66191821212265   -1.01040997680467
H          -1.96158042753334    2.18824932839319   -1.48559423072069
O          -0.40732414210157   -0.94287914960715   -1.63145082749254
H          -0.75441269171327   -0.04965780825863   -1.48883681135791
H           0.15524203513751   -1.15412337502117   -0.86410863944743
O          -2.53507298335611   -1.91348756434309   -0.09632006755104
H          -1.95003946038058   -2.04853901549865    0.66052507810771
H          -1.93752753918821   -1.78130442961859   -0.85077871825640
O           2.29066043031824   -0.06815031804506   -1.87433733448064
H           1.55588285185493   -0.38163359560366   -2.41970422460378
H           2.26495802788756   -0.65964362085537   -1.09711244031425
O          -2.49527378746884    0.55859011737699    0.97793174822634
H          -2.87630023345983   -0.23785902717268    0.55086816510527
H          -1.77623808922476    0.17606623625176    1.51252295599218
H          -1.80215420309222    1.29011428125830   -0.20010412154127
N           1.27506458605860    1.84489283910523   -0.34695096932072
H           0.27447118047263    1.94683482389925   -0.62307211085110
H           1.29540515314575    1.35891551103753    0.61339079604143
H           1.75423829115557    1.19298071215919   -1.03685055110679
H           1.73752615922296    2.74627704817237   -0.30045688630351
