    26
        -50.46214905  Gyration_radius:  2.46058259661 Dipole_moment: 6.831
 S          -1.78341886615925    0.28769245236803    0.94681755187584
O          -1.88964514968694   -0.20587133687086   -0.42218054572255
O          -1.25818676430690   -0.76965898597981    1.81413375535568
O          -1.05862887366789    1.52443325234709    1.04317541072934
O          -3.25449732364799    0.56683375582208    1.44764419582015
H          -3.62826284002406   -0.30681793356740    1.42511498430475
O           2.32952890246634   -0.30203808512616    0.02695014642999
H           3.28040117886355   -0.27106867899052   -0.08231690285138
O           0.51429792420203    3.02834447471985   -0.81292235465931
H          -0.26715954961127    2.87979745078919   -0.26473461755289
H           0.51035220269642    2.29770203967587   -1.45313937095652
O          -0.79256793858312   -2.17620115048391   -1.84395956810276
H          -0.28092286610701   -1.58647621187131   -2.41489402772835
H          -1.46436558961892   -1.58539772344510   -1.45117780632681
O           0.34312035493026    0.43485758071045   -1.84711646714020
H          -0.47555993716961    0.35198621041798   -1.32478434525648
H           1.07594252189815    0.18888392482971   -1.26306605386368
O           1.60219008496813    1.78637689787565    1.31800032539990
H           0.66746958971541    1.62794871139008    1.54227175978911
H           2.08508713961425    0.50502889487722    0.59085759042131
H           1.52828219743662    2.43923448368192    0.58986331462591
N           0.45849088420595   -2.16748634363969    0.49243486622355
H           0.01362411960241   -2.31592755659411   -0.46181676462905
H           1.29728435632978   -1.55807079732921    0.37897309134453
H          -0.25318456118048   -1.62619893525466    1.09197161829551
H           0.70032882285033   -3.04790640035008    0.93390020417894
