    26
        -50.46158935  Gyration_radius:  2.58977603854 Dipole_moment: 2.421
 S           0.01434844971394   -2.19221489772461   -0.45928081856171
O           0.41159523064790   -2.58461191774493   -1.78587324577376
O           1.12084147200703   -1.78713675919103    0.39365560835128
O          -1.07510466192728   -1.22790897384748   -0.41358977129882
O          -0.60296869710715   -3.50142162426560    0.22687811315084
H          -0.06311978558827   -4.20311245595502   -0.12355588677363
O           0.29076244550897    1.96463342458994   -0.79988235977163
H          -0.67461055659391    1.88873895478339   -0.95677174161879
O          -2.24169868295691    1.12584954464456   -1.00233472140433
H          -2.80277247781148    1.21344111587749   -0.22902289820757
H          -1.88727846991291    0.21887173582602   -0.96332750029583
O           2.13407467052856    2.84248067764203    1.22686082925479
H           2.94051219547665    3.30443923485327    0.99594335467965
H           1.58346856212605    2.83678068728746    0.43139342870561
O          -1.81249484268482   -0.55837517497577    2.01581064185614
H          -1.94850449499170   -1.35089268606526    2.53640749854667
H          -1.64103311775282   -0.86965134323769    1.09640576818837
O           1.05451292749274   -0.07869698695944   -2.37829958104038
H           0.67864385698427    0.00837271257188   -3.25747394965935
H           0.68390223580201    1.30328943390977   -1.40755967141177
H           0.90224137444448   -1.00926394948278   -2.12153069176830
N           0.59274891407250    0.53758526556893    1.42651703571639
H          -0.29180883288814    0.35460717577663    1.93076734034333
H           0.93864251236487   -0.39831673705360    1.06627615641328
H           0.40581962795005    1.13226194159350    0.56745368575605
H           1.28928013506838    1.03025159160558    1.98413337662973
