    26
        -50.45377482  Gyration_radius:  2.62914279818 Dipole_moment: 6.285
 S          -0.36127888405856   -2.45493857220379   -0.90976997475227
O          -1.79836069538297   -2.31845603504327   -0.95491548827420
O           0.31239794509973   -1.20603581309525   -1.34789871534994
O           0.19947229717670   -2.90073575889198    0.33578392937457
O           0.00601638223445   -3.53315378419897   -2.02329862485815
H          -0.69804584800909   -3.42371871612509   -2.65546466306290
O           0.21887176552222    2.59223357590637    0.27903041217457
H          -0.10086999958759    3.48722465168251    0.16060024689511
O          -2.61441479662809    0.03149195430063    0.01912301008931
H          -2.16043937699869    0.07102274474041    0.86865284157414
H          -2.44975165100191   -0.86801630042235   -0.33283126170655
O           2.75606433264553    1.64633055573505    0.44917380363727
H           1.89935647641106    2.11976558114561    0.41146811249256
H           3.12628956121666    1.69104495583387   -0.43411841670731
O          -0.68722940107950    0.81358497917793    2.07433292065395
H          -0.43819933700924    1.55962716643186    1.48271951732106
H          -0.82732235983407    1.17786311933639    2.94890074552103
O          -0.84551860094634    1.20001131045205   -1.57440491702495
H          -0.35612903397538    0.36267704626179   -1.68778188438918
H          -1.66478152454189    0.91070381101057   -1.10621639911144
H          -0.16419831207295    2.05880277361072   -0.50374259163970
N           1.35632477598292   -0.59910629580093    0.92317835168344
H           1.64505307944798   -1.50610643135642    1.28499485261153
H           0.57240405131131   -0.22818258253860    1.49205269240939
H           2.10701888756184    0.12226440472678    0.86121162589369
H           0.96727024652200   -0.80619837068973   -0.06078014545427
