    26
        -50.46047653  Gyration_radius:  2.51712229196 Dipole_moment: 5.350
 S          -1.27160727116281    1.03186010837779    1.47035100481037
O          -1.36861308123884   -0.27123730337149    2.12974313427256
O          -0.20792228967685    1.85340900027324    1.98876939054690
O          -1.26114367742283    0.86408217054672    0.02593862687041
O          -2.62140581502485    1.80176932094856    1.80595869564570
H          -2.37282256928820    2.27241507815076    2.59445724360752
O           1.63587435633051   -1.54785269759737   -0.11318789233600
H           2.42176352860768   -2.05934762063391    0.08216506921735
O          -2.17433831914974   -0.96960464092024   -1.66557547757527
H          -1.50885865008974   -0.78133624516007   -2.33973399248866
H          -2.16990011589600   -0.16997033189703   -1.10300589145259
O           0.44038224125701    0.22012790062744   -1.96735975007292
H           0.92837396579182   -0.49033436777523   -1.52785162225151
H          -0.13549565599994    0.59754867823222   -1.27475346072611
O           2.38981509741158    2.03194711335779   -1.39750539832557
H           1.65925979126938    1.50170776896707   -1.77654413296519
H           3.12623951450457    1.96395267149733   -2.00609469538350
O           1.98741954374927    0.73544257265158    0.99626933896607
H           2.22392080559910    1.33227355946887    0.26101910301319
H           1.22077095660380    1.15851266587041    1.43460711667308
H           1.76077263612375   -0.66512992509010    0.37050205113114
N          -0.94279656016682   -2.11601196472991    0.39877060539347
H          -1.16363295440116   -1.38453860803216    1.16382981804413
H           0.08248673989512   -2.04120091189827    0.21116646679206
H          -1.20287345658719   -3.04719330295772    0.70376224771069
H          -1.47566877103119   -1.82129068890113   -0.46569759912122
