    26
        -50.46047647  Gyration_radius:  2.51719010208 Dipole_moment: 5.345
 S           1.05090093946744    1.93123143874796   -0.10083229354465
O           1.61286741842413    1.43045092045814   -1.35611785272344
O          -0.14916927107304    2.70655501444242   -0.28478196786188
O           0.93370738486441    0.84915673520573    0.86345235539064
O           2.12936723809660    2.93181182618125    0.50134944021119
H           1.83787196790072    3.75894441190982    0.13272951739317
O          -1.08879695589127   -1.46659980581663   -1.32223474259855
H          -1.65431623641770   -1.83604508872316   -2.00129817540930
O          -0.69981292812919   -1.21270147003320    1.46613030589693
H          -0.19360881116233   -0.38619213868982    1.34594429098741
H          -0.89696890867998   -1.51847443371971    0.56959361298959
O          -3.03341247836337    0.18171304476589    1.59917371569358
H          -2.22230978558207   -0.34172973829851    1.76237010760855
H          -3.77623727679256   -0.38791018212883    1.80179154478964
O           2.16896001800134   -1.46988157276093    1.25727530870487
H           1.98434104640551   -0.51239024990723    1.32729108201857
H           1.40705820018586   -1.88387748245717    1.68261426386497
O          -1.99573195508343    0.88349655332970   -0.85111487086356
H          -1.42315228209703   -0.52001794452916   -1.17747961439726
H          -2.48190751054768    0.79541144901834   -0.00933371652158
H          -1.35068540819734    1.60489960095009   -0.70129296064432
N           1.58031270483997   -1.13441300241794   -1.31840525539859
H           2.14353464647151   -1.57269233589861   -2.03844490386707
H           0.56676412247616   -1.36615045999909   -1.42363053228355
H           1.89936144632263   -1.40751260789415   -0.34794075023822
H           1.65106267456037   -0.05708249173324   -1.37680793919259
