    26
        -50.46502276  Gyration_radius:  2.52097141678 Dipole_moment: 2.032
 S          -0.40477591753093   -1.89800923360576   -0.68795309058742
O           0.15594744816732   -1.46455994154284   -1.94434779237334
O           0.59815253102165   -2.22850249622162    0.31574847100441
O          -1.41606286438711   -0.99968700671592   -0.14956899332642
O          -1.17901342279960   -3.25066393511150   -1.01252072069702
H          -0.66124116734291   -3.60236288645217   -1.72961793130361
O           3.21299370542341    0.65717283843375    0.86760188690201
H           3.83189067664290    0.01675928346120    0.51234175399347
O          -2.59731403527397    0.74262806275708   -1.72183847857035
H          -2.14464273009777    0.00182402289485   -1.25826320077316
H          -3.50206179252782    0.73310197841952   -1.40395624356803
O          -0.89755997203551    2.51202770233703   -0.70023737499146
H          -0.77819588946798    3.27065155346028   -1.27278920363825
H          -1.56332845844892    1.92895485672528   -1.13911432908739
O          -1.05941377011745    0.96506648300717    1.62678442765390
H          -1.34746971197289    0.22937766370844    1.04823095397313
H          -0.94246046881716    1.71409733277590    1.02488478626669
O           1.21091680480444    0.71131528548284   -0.84165728940803
H           0.87824467038757   -0.06200096756550   -1.33148559786082
H           0.49208324503684    1.36495900644804   -0.81793076191839
H           2.55773048690568    0.81461482907296    0.14835691844675
N           1.12215936513394   -0.42981708403411    2.12541028542183
H           2.00785719041742    0.03305534606265    1.80082112580588
H           0.91347773119057   -1.21245142581425    1.43167260682451
H           1.20513190223500   -0.79355213542533    3.06775707624829
H           0.30695444344231    0.24600086741686    2.04167072557554
