    26
        -50.45870191  Gyration_radius:  2.54215392722 Dipole_moment: 6.095
 S           0.79298695178861   -1.89209286993056   -0.84474944084627
O           1.91359527940113   -1.90992661192706    0.10369988209827
O          -0.47048719844721   -1.89436917183077   -0.10826696436619
O           0.87535197755584   -0.84320142341178   -1.81767814536319
O           0.87293344497985   -3.27279912394539   -1.61262294025317
H           0.97081298447527   -3.88624946192664   -0.89218945663292
O           0.55559850985798    2.05358372446117    0.60836682459877
H           0.70741634929956    2.97529645981875    0.81932892215608
O          -2.04519259866416    1.80824998270932   -2.17073993777127
H          -2.80628432278853    2.38853642879588   -2.14621599246269
H          -2.09198623931989    1.24829322036880   -1.36812630768666
O          -1.74098248790319    0.47328573224938    0.17850699463689
H          -1.33659511686651   -0.37403501527800   -0.09272313621330
H          -1.00439821015718    1.06404244456341    0.39773831222393
O          -1.05785266694644   -1.23473020211125    2.38928389188838
H          -1.73570650847345   -0.58549990121649    2.16367506232903
H          -0.92748617081389   -1.72986426894234    1.55260814295610
O           0.68815179458150    1.81524826393776   -1.92595006868309
H           0.86436252034931    0.85957393570424   -2.02595768619244
H          -0.23783263632491    1.92090766224590   -2.21181022568485
H           0.66943022204728    1.97916182574812   -0.40399952814693
N           1.32440782869089   -0.17665730732967    1.90297109687752
H           1.65102272068268   -0.88888074683739    1.15829892164894
H           1.15169600514496    0.74032628979275    1.43404592625919
H           0.40223120308313   -0.54888939353808    2.27178705450799
H           2.01480635476539   -0.08931048219037    2.64071878811315
