    26
        -50.46907336  Gyration_radius:  2.47611173128 Dipole_moment: 2.908
 S          -1.38949248505010   -1.62860124356137   -0.63160247608092
O          -1.49911003809002   -1.15246661697897   -1.98985597410666
O          -0.02365113443525   -1.65186190130331   -0.12841529347222
O          -2.28592309863264   -0.93413652745049    0.28577059301587
O          -1.85772898898560   -3.14487384461109   -0.65120619660599
H          -2.65306257442014   -3.08150459094380   -1.16875615602352
O          -0.05470080773812    2.48035525474604    0.15400994541336
H          -0.27294387606162    3.39026220041690   -0.05004089180614
O           2.36379025583946    1.06504620561775    0.66199579581672
H           2.39871108571443    0.55093958019795   -0.16124093213220
H           1.65639096910242    1.71231354460617    0.53168310214287
O           1.12451130443327   -0.76375337287560    2.15899444317588
H           0.83510393373217   -1.33781836765136    1.42755757406213
H           1.75832157105275   -0.13112770567793    1.74437400630669
O           1.90240872889975   -0.55461460158712   -1.53775751951087
H           2.38577643180473   -1.23419455836808   -2.00874862166965
H           1.18283350308416   -1.01634666373425   -1.04429346892740
O          -0.19710819129992    1.14905263474094   -2.06182461873048
H           0.68259410323226    0.74536054353657   -2.12597512845404
H          -0.80786638932584    0.38325329314180   -2.09944374891286
H          -0.15332240110839    1.97487529003216   -0.70818586996510
N          -1.03390175640632    0.65632010632170    1.90459881901989
H          -0.14970172689987    0.09557559466577    2.17059029331433
H          -1.60987466026584    0.01189076293305    1.27923315146490
H          -1.56474627602570    0.94509994948038    2.71804574175778
H          -0.73730746214976    1.47095504430605    1.33049343090757
