    26
        -50.46911884  Gyration_radius:  2.4548185605 Dipole_moment: 3.994
 S          -0.27735386631492   -2.19778792730682   -0.33014780135962
O          -1.13532851622944   -1.41702212508956    0.55064469780774
O          -0.78536912836807   -2.35047812776440   -1.66246920361360
O           1.09604015498567   -1.68280839071710   -0.27824745153078
O          -0.21066636018599   -3.65972097510583    0.29546880563674
H          -0.36105223120835   -4.21233974684411   -0.46511969015216
O           1.49223196815976    2.21475049027377   -0.37753072167962
H           2.07672568598340    2.84421172751385   -0.80026790256144
O          -1.87689756367355    0.23014562743835   -1.36818830172715
H          -1.69882319499991   -0.39015019464505   -0.62859516427660
H          -2.25815433245563   -0.31835390561299   -2.05794387370804
O          -1.22062688554745    2.30240516927299    0.45109564941883
H          -1.62974654977768    1.76361724684291   -0.23917913852322
H          -0.31115493112295    2.46354349775563    0.16012808643203
O          -0.86864732540100    0.50761451323455    2.40053721113142
H          -1.14338695503016    1.26887149832337    1.83658684139450
H          -1.18820927098202   -0.27898928197389    1.92276655284658
O           0.76445230838309    0.35323237248136   -2.02140393408028
H          -0.21146097924039    0.38455670196075   -1.99106108867278
H           1.24481476714823    1.54047196834266   -1.08019309258368
H           0.99635972004851   -0.48424366294860   -1.58423169955869
N           1.53008718887648    0.22644006839778    1.46969320584437
H           1.40326590150377   -0.60024113542265    0.81616783363101
H           1.69607075243497    1.06704048353119    0.88267089404025
H           0.58142680569522    0.36204771712644    1.98519816920591
H           2.29540281731319    0.06318637094865    2.11362110664293
