    26
        -50.45490148  Gyration_radius:  2.54680152467 Dipole_moment: 5.588
 S           0.47980467019821   -2.06224125309981    1.04540562562753
O          -0.47745954758831   -1.48770566516254    0.12369585017267
O           1.76989241115359   -2.36128273979152    0.47956682584486
O           0.56127015866740   -1.25734853607324    2.27207032371572
O          -0.12939703874320   -3.46597409680022    1.49912478005253
H           0.65560305448490   -3.99085052373442    1.61970243081494
O           1.12074055425247    1.98247763611838    0.05733196860250
H           1.90723902219518    2.51553474242224    0.17849836440676
O          -1.10520898673569    1.81521954220558   -1.68189675667395
H          -1.68361182698480    1.29735355478104   -1.10078349592995
H          -0.33760919045134    2.05198980065362   -1.14214260697991
O           0.18101783716351   -0.09657445331110   -3.10386273116185
H          -0.38815867032827    0.57568851786613   -2.67008326256823
H           0.55372812526034    0.32618136516420   -3.87893304794906
O          -2.40407932689150    0.20834266303336    0.20730654478304
H          -3.24317227702614   -0.23855443802409    0.08981880391099
H          -1.70406808031084   -0.49031325365547    0.09157277623876
O           1.94733216816744   -0.16721383024570   -1.03783334962886
H           1.33083110531628   -0.31772160723357   -1.78609392119531
H           1.44802645908300    1.11084812632602   -0.35969571783943
H           1.93351611031316   -0.98770760522177   -0.50974803440407
N          -0.49820912385972    1.03502127397344    1.94247105592048
H           0.15857718629174    1.51194084221434    1.27221958154952
H          -1.39615473028371    0.87237036654078    1.45371846125515
H          -0.05907181207462    0.05421706762024    2.14170988963322
H          -0.62137825126111    1.56630250342731    2.79685962181232
