    26
        -50.46173011  Gyration_radius:  2.49813484601 Dipole_moment: 7.261
 S          -0.27107751111752   -2.29876739305692   -0.48470591644194
O           0.85678069008586   -1.45119085345317   -0.87538257276621
O          -0.21426982835044   -2.57074607334681    0.95515817845678
O          -1.53985170443385   -1.79499266201283   -0.92186736783288
O          -0.03580968914991   -3.69403099375074   -1.19317066370097
H           0.80589096130551   -3.95009364673692   -0.83145373068069
O           0.95603322375460    2.35382642246313   -0.39829895071849
H           1.18158792004953    3.19719989949349   -0.79166807204197
O          -2.32693701672873    0.74247393172913   -1.26609421239421
H          -2.25048224388956   -0.22765432589272   -1.21289011175774
H          -2.14258443353874    1.06003205651860   -0.37273759427519
O           2.29142932811760    0.19365849028819    0.65328566314598
H           2.04480403694835    1.05654520374318    0.27627662434941
H           1.95885612744692   -0.46573311045736    0.00743375430279
O          -1.14122432752906    1.79641947243677    1.14987052380188
H          -1.55664638819273    2.60234559314894    1.45918297467458
H          -0.37755352249686    2.06702039489424    0.58441017682247
O           0.17405501336958    0.76286100515839   -2.23285013172340
H           0.43515900733560   -0.11288206683268   -1.88562488776908
H          -0.79970684506902    0.80625987086703   -2.10120398523672
H           0.68106714768572    1.75045461672597   -1.17472649163855
N           0.24194129154804   -0.35453726680073    2.16343469832515
H           1.17158139410123   -0.08726814359313    1.69262901800781
H          -0.02491939639307   -1.29922649840408    1.71361344831992
H           0.33535115234766   -0.45096900768672    3.16837910529044
H          -0.45347437720502    0.36899508455342    1.91900054347903
