    26
        -50.46562313  Gyration_radius:  2.50091329469 Dipole_moment: 2.623
 S           1.70344995731471    1.05828244811508   -0.01883388448787
O           2.55846365304708    0.33068695129546    0.91181366143087
O           1.61625776444350    0.38129156288482   -1.31203395120188
O           0.41095838014517    1.36618533836063    0.53026989068437
O           2.44503146151172    2.43476928139690   -0.29497416791703
H           3.34894060560152    2.15893258641498   -0.41185783836333
O          -1.22003882062965   -0.19994158950077    2.91945824379585
H          -0.90411396421415    0.61595286330185    3.31300934381535
O          -0.45918130861925    1.05174125995595   -2.77822002221039
H           0.31678448132043    0.90728834038694   -2.18906769262883
H          -0.13769482161012    0.90637978595222   -3.66996961046392
O           0.24926866302805   -1.86375728570328   -0.79284890717646
H           0.82077314609332   -1.12651988376505   -1.09073668583041
H          -0.65130103309574   -1.61766148100441   -1.06382024092122
O          -2.10174950913349   -0.70653594361958   -1.65484663623487
H          -1.56729252496157   -0.00125402057053   -2.09596612740623
H          -2.86829979165230   -0.86063397714159   -2.20808313267292
O          -2.20532205483757    0.76458247188640    0.70025071069289
H          -1.73415424852426    0.09434368692136    2.11747759804481
H          -1.33936002566613    1.18535517006309    0.55644900180562
H          -2.31767569126832    0.16924223364131   -0.05764857397038
N           0.80874277407359   -1.42647745319776    1.74068647145581
H           0.48658247888819   -1.74063798618488    0.77801497717663
H           1.56953483195602   -0.71704315334597    1.54582515741870
H           0.00194348332539   -0.95519186056618    2.24990586420844
H           1.16945213352699   -2.20937932597153    2.27574656096718
