    26
        -50.46254235  Gyration_radius:  2.49151688712 Dipole_moment: 7.182
 S          -0.10693198989152    1.85091882424288    1.48460924327695
O          -0.85578576913218    1.56694512158634    0.25936237941560
O          -0.53600069082229    0.94190748641401    2.55114783080511
O           1.31463927480918    1.87640333973846    1.29327784780223
O          -0.55243030853988    3.29702849028116    1.94772960717956
H          -1.48377522797768    3.17457795492035    2.09879796588831
O           1.43846296221337   -1.80870115958651   -0.20200735671282
H           2.18804953262702   -2.39523166750765   -0.09515390552149
O           0.30180036536150    1.24269972628122   -2.15904414144694
H          -0.13620836407537    1.53181400531503   -1.33678909801523
H          -0.07680974370912    0.37496798635700   -2.35963200368973
O          -2.29897364991193   -0.57722936936707   -0.37076801866974
H          -1.87861098152049   -0.88461687986479   -1.18755388692807
H          -1.93361267749683    0.31924616478589   -0.20889380142054
O          -0.41126835325091   -1.50720808869071   -2.19738387605570
H           0.27553756930060   -1.69538099016750   -1.52751891200041
H          -0.16946256284529   -1.98589467302092   -2.99096539417525
O           2.38847818547462    0.48713570827484   -0.68337343914670
H           2.16415727452848    1.04081143685416    0.09345373778633
H           1.84645433588825   -0.87718991422729   -0.37613670663600
H           1.79664660037916    0.83605895161610   -1.38950770928415
N          -0.64767835311046   -1.39285038761277    1.48641537273382
H          -0.54990950925022   -0.45531137839655    2.00744763915173
H          -0.88040152629346   -2.14109613133311    2.12975421394777
H          -1.42421744274467   -1.22079648916627    0.77138375443103
H           0.22785106998999   -1.59900807772624    0.96134865728432
