    26
        -50.45901941  Gyration_radius:  2.6337121179 Dipole_moment: 2.636
 S           1.24630910848635   -2.08103212961619    0.68282885037817
O           1.93502989832838   -2.56791060044048   -0.48444318117048
O           1.90620037390938   -0.96949652503887    1.35156362313673
O          -0.16206024233363   -1.76031036602284    0.42316342958714
O           1.23986387804295   -3.27458880060524    1.73661977524466
H           1.27108009753947   -4.05234162807046    1.18731180549569
O           1.30164743930040    1.95770334568629   -0.74317426372343
H           2.25111757535315    2.08447335651989   -0.77233785706476
O          -1.82894307910400   -0.01423029119181    1.56689032437837
H          -1.38576864804676   -0.80743115595422    1.20500138800042
H          -2.34229060244557    0.36848891332150    0.82263102593088
O          -1.10367716389239    1.44239535652895   -2.47213340807050
H          -0.56858200712647    0.63495043084487   -2.44319645928007
H          -0.53322618379453    2.13966163730541   -2.13502243323877
O          -3.01400794430035    1.01351140656773   -0.61895461075623
H          -2.35461167706339    1.21047941527460   -1.31980264300225
H          -3.70468421950480    0.49915045599774   -1.03836492876010
O           0.71548462916052   -0.48325889948230   -1.65477510873439
H           0.19654396048829   -0.90992803491012   -0.93535987104252
H           1.13885670098334    1.05213084701624   -1.10280564414865
H           1.43592474821121   -1.11823410525187   -1.77014139623515
N           0.47200250814922    1.16020846595581    1.72068576125468
H           1.08293201017488    0.28440956208333    1.67767230568640
H           0.67777455408283    1.68841039383002    0.84953337574178
H          -0.54794286714634    0.79608915979099    1.71707807095606
H           0.67502714253848    1.70669978983089    2.54953204939876
