    26
        -50.46245847  Gyration_radius:  2.53050026885 Dipole_moment: 4.460
 S           0.95342138075583    2.00028988697854   -0.37025902147941
O           0.36720550797757    3.26150486690471    0.02583876991551
O           1.35298975843738    1.16392474301163    0.73782420813237
O           0.07989472161180    1.26351607456086   -1.29556411998761
O           2.26823717603554    2.33490477911770   -1.18928551933170
H           2.01091029081773    3.04800609231976   -1.76660618435023
O          -0.30329311180162   -2.09494334556253    1.32153365477421
H          -0.12366565969160   -2.28042452256628    2.24349739751533
O           0.61950534587485   -1.22914144200665   -2.18469596049021
H          -0.23626132076881   -1.63728408136061   -1.97651437722125
H           0.48140044534950   -0.27387235388489   -2.06497324237934
O          -0.86728408072705    2.22323904213828    2.09235729178686
H          -0.07766007249980    1.90667601796618    2.54176044417302
H          -0.51018423402347    2.79060395886810    1.37001422815862
O          -1.66763510317961   -2.45113380381182   -1.06081093696533
H          -1.73894961108808   -3.32718701364637   -1.44247284185031
H          -1.22499089343594   -2.55654630189949   -0.20406937392050
O           1.86429600928854   -1.39820858469965    0.18163463809879
H           1.85252160992936   -0.44627186309718    0.40808236523499
H           0.60395537554873   -1.89113604138426    0.89585665256126
H           1.60370642710083   -1.43930404417781   -0.76642618749641
N          -1.48671699939897    0.19495281938451    0.50493056257251
H          -2.44485588951344    0.02252329526332    0.21595060547478
H          -1.05823719525560   -0.68929892928218    0.87484761296503
H          -0.91319604604578    0.53805127853297   -0.31911565768436
H          -1.40511382130486    0.96655946232843    1.22666502179229
