    26
        -50.46245851  Gyration_radius:  2.53039977813 Dipole_moment: 4.461
 S           1.53023651480214   -0.56186328775739   -1.54586432772181
O           0.64116938105404    0.56126349023287   -1.73317251549410
O           2.92814960694417   -0.19965215319197   -1.46988568492445
O           1.11672304531572   -1.37156880558677   -0.39023628194114
O           1.36001827936248   -1.49753124660367   -2.81356536526738
H           2.10018458664967   -2.09572377099162   -2.76534534994476
O          -1.81758830065057    1.46525570579436    0.88212396262549
H          -2.02628701146470    2.38021803295576    0.69249651201436
O          -1.43295181724774   -2.14751658998620    0.04739486572000
H          -1.51061937149814   -1.84992920782415    0.96808523418408
H          -0.48634550157063   -2.07557345878645   -0.16401071855187
O           2.44911474451237    2.01335430349913   -0.14836153960309
H           2.83388340296217    1.23295482494854   -0.61108965605155
H           1.89151028703785    2.42056653503084   -0.81842581450963
O          -1.74608050288995   -0.77956267089309    2.50063678998203
H          -1.97398163800821    0.04541066825157    2.04400178606495
H          -2.55307392549446   -1.10145444709262    2.90480681940785
O          -1.95393411704568    0.12248600971247   -1.27696054994027
H          -1.93001904392017   -0.79863055414921   -0.93150038050946
H          -1.95546437354427    0.95968563275445    0.00391564213799
H          -1.05117537792007    0.29148392628219   -1.61472767263226
N           0.71528705844233    0.60416930855742    1.27495876199152
H           0.81213052525039   -0.28031365318841    0.69701542258904
H           0.87801816716458    0.39965872745964    2.25627692550196
H           1.43211191876992    1.26935706608240    0.86686286369702
H          -0.25101653701313    0.99345561449340    1.14457026117884
