    26
        -50.46875495  Gyration_radius:  2.44208370871 Dipole_moment: 3.564
 S           1.53487042545193   -0.87505397615760    0.84284334768405
O           1.50401691298439    0.57695480773005    0.87822729228938
O           0.90929928123132   -1.48354684005012    1.99483525005876
O           0.99933662809859   -1.38340160830058   -0.41891128359546
O           3.05178786845361   -1.31606004245807    0.88531904785565
H           3.14826612938859   -1.51199304600141    1.81060272804980
O          -1.81114382547917    0.85941105642659   -1.50523195111704
H          -2.33988771064943    1.28242277201571   -2.18214259298400
O           2.05499751551549    2.31005741075436   -1.06554202089195
H           1.98929796907573    1.69052090297678   -0.31073162747730
H           1.71027011521414    3.14693630816888   -0.74911825024678
O          -1.02850291830596    1.45411127189487    1.16364037757405
H          -1.35279671529564    1.43540650186327    0.25215986452202
H          -0.07805123231163    1.23983377269182    1.11858152398592
O          -1.67352461247946   -0.89475316670620    2.22793113398698
H          -0.74997592961837   -1.18274575300755    2.38341381368808
H          -1.59829671474660    0.07417613098575    2.06801942676019
O           0.58463057120080    0.45266720460497   -2.36357443722590
H           1.15844463614146    1.20098297491902   -2.10385738930686
H           0.85847515115585   -0.27951966670816   -1.78069594859002
H          -0.88407491057553    0.75687201644491   -1.88998981168652
N          -1.62144719030724   -1.53363548351152   -0.26938540385429
H          -1.91111646640383   -0.68643663733326   -0.80172014993712
H          -0.57421076911363   -1.61377244027734   -0.37544547063317
H          -1.78905423859598   -1.35187187827444    0.79297485918448
H          -2.09160996003090   -2.36756260269085   -0.60220231809250
