    26
        -50.47116946  Gyration_radius:  2.4585871847 Dipole_moment: 2.511
 S          -0.24293792038359    2.18092505410265   -0.55383405812019
O          -1.11238205867031    1.12955921885888   -1.05518036097954
O          -0.70174417698982    2.82772714029751    0.64173631801229
O           1.13642111181429    1.68451240487935   -0.43395099969123
O          -0.19439628378834    3.30468227347984   -1.67888479746061
H          -0.47049979931422    4.07774193324838   -1.19686793591146
O          -1.18284804284389   -2.41489707689166    0.45311947240195
H          -1.81789025247463   -3.06581854713158    0.75252528115324
O           0.67026481290081    0.79245286384851    2.02263895338580
H           0.90173910794723    1.17392045196283    1.15023587422650
H           0.47301635045125    1.55322424364823    2.57409268247533
O          -0.68778738849943   -1.33615729535099   -2.03843953601880
H          -0.99299434899109   -0.42677925293737   -1.84932274728939
H          -0.98887057405729   -1.86785017759809   -1.27940691585395
O           1.36869182851276   -1.81214290649962    1.24522470072301
H           0.48442295970542   -2.18552295915990    1.06730907473934
H           1.21583059510113   -0.99821996121655    1.74825859123839
O          -1.84895532480708   -0.02939474678300    1.22883025774952
H          -1.51544937923709   -1.52609457037367    0.77536508741659
H          -1.07663623101330    0.27086102807476    1.73740050013694
H          -1.79898901575135    0.48071092245774    0.39883150049770
N           1.70818010252305   -0.77307332514586   -1.16067197047403
H           1.57096428023621    0.25463307502385   -0.96294851740304
H           1.73643656749689   -1.26285152177930   -0.21847353251321
H           0.81982547046545   -1.09510735871967   -1.66257314534276
H           2.54658761973576   -0.93704091027441   -1.70501376707921
