    26
        -50.46885297  Gyration_radius:  2.44090710142 Dipole_moment: 4.315
 S          -1.28119659778081   -1.44350392605583   -0.14537772603206
O           0.14560763227662   -1.73958145006793   -0.32789451861790
O          -1.68198936042706   -1.63841962932622    1.22871412563805
O          -1.62101998127352   -0.14662937052321   -0.69002848755236
O          -2.07143521226239   -2.51336848572761   -0.99735717860591
H          -2.18604157611551   -3.20496909070255   -0.35527588816036
O           1.91947956847585    1.60429511687344   -0.06090367568165
H           2.64430208020216    2.18188447504318   -0.30136396559767
O          -0.92753747522020    0.83204458030416   -3.06870163639203
H          -1.25049864710003    1.73469758387566   -3.07655866584467
H          -1.30814424269615    0.41707276562655   -2.26883159877567
O          -0.76070465045585    1.90630222466384    0.83803075425169
H           0.14310037200978    2.01156885007639    0.50914596011201
H          -1.18327363339460    1.25386197352178    0.25049993699073
O          -0.63845682847379    0.18529391194802    2.86291770911968
H          -1.19125018318117   -0.51004235088956    2.44988603925424
H          -0.81264238659650    0.99002356622495    2.32239123948505
O           1.40395328144370   -0.02218427634869   -1.99523019057274
H           0.98924915396009   -0.75850653268972   -1.50789669847762
H           0.69114751356376    0.32636689728847   -2.56598045942041
H           1.73663902039486    1.02668409260727   -0.86690660488688
N           1.48130660861704   -0.50692081436107    1.56747443719695
H           1.01822761276029   -1.11181983542302    0.83431772171078
H           1.82601657475191    0.34661207313697    1.07979512935833
H           0.68254512889471   -0.21853600912600    2.25127370105111
H           2.23261621762455   -1.00222633994927    2.03386054045244
