    26
        -50.46433730  Gyration_radius:  2.51930935245 Dipole_moment: 3.792
 S          -1.70194382285917    1.35060191108544    0.37060146526441
O          -2.13831084492226    1.51944736996575   -0.99854828009560
O          -2.28744507656431    0.16386893192755    0.99044269371595
O          -0.25747390443870    1.36675080107760    0.51763074651533
O          -2.23774956338110    2.59793035868470    1.18242188149336
H          -3.14564267327403    2.63374224515962    0.90020591352756
O           1.20589676227077   -2.05809005865583    0.45316162911545
H           1.75873204278997   -2.77804245487557    0.75746386165897
O          -1.00533705604341   -0.32665436328110   -2.50535436467312
H          -0.06607834258636   -0.08351804069849   -2.40255122559528
H          -1.50397184749859    0.43376447392499   -2.13062940243770
O           1.35837225321724    0.20751133910362   -1.24407779296539
H           1.45064096299959   -0.66505392039487   -0.83286487822557
H           0.76521376653231    0.71578475905210   -0.64858848272426
O           3.22118341410707    1.24490801089614    0.53084025956089
H           3.02397659525306    2.18020857739075    0.60530490261770
H           2.76266548818632    0.93769641289276   -0.27288567288533
O           1.38446460919827   -0.06386299544129    2.07297964045343
H           0.66427335499876    0.49389251045695    1.72159362037730
H           1.27247605181933   -1.33484694805558    1.15703859260572
H           2.19849272088962    0.36680969722619    1.74212812114053
N          -1.34991804231123   -1.81221113765322   -0.39041167117269
H          -1.23901257706294   -1.33155571312670   -1.34852177621294
H          -0.40483866885892   -2.05735964064371   -0.02627503863141
H          -1.78279145356468   -1.07123623472906    0.24825652668927
H          -1.94587415884596   -2.63048588124979   -0.44936126913331
