    26
        -50.46885293  Gyration_radius:  2.44094734997 Dipole_moment: 4.321
 S           0.24133018190670   -1.66477850376633    0.95763741399394
O           1.66780682881283   -1.87097415456846    0.86103272010697
O          -0.06721184084779   -0.44658263364510    1.71764996283759
O          -0.45338893360773   -1.68050241064153   -0.31164612410568
O          -0.32882327233645   -2.87280304723072    1.80052762487242
H           0.42180037195494   -3.08205733820923    2.34504706048381
O          -0.54774200158765    2.27798550718870   -0.87953628076324
H          -0.96263228918501    3.09421359262736   -1.15961799486554
O          -3.02275819666135   -1.12849867505856   -0.74814661105894
H          -3.13111125486583   -1.15768775687848   -1.70028085400036
H          -2.12722859786108   -1.47861573838460   -0.56841720261448
O           2.85591366778240   -0.06584615167145   -0.69307860709275
H           2.62786407033126   -0.86436956207197   -0.17342904305001
H           2.22218724032394   -0.07490022726978   -1.44692862781430
O           0.61730775741544    0.00493179748688   -2.12898076393722
H           0.16667316960559    0.82987517931692   -1.89997877353063
H           0.19567176177244   -0.68751182347283   -1.58844804723582
O          -2.12512954740774    0.97740095078195    0.69301653099603
H          -1.22467159078873    1.79638762850818   -0.30808450434765
H          -2.65083869938735    0.31956641937277    0.19678014396248
H          -1.48115746010246    0.44592213115591    1.19747703532802
N           1.43230844042006    1.49670228836457    0.78448449117289
H           0.77822530429410    1.99776485066991    0.14696774285130
H           2.15611609822133    0.94905395417259    0.18055176813768
H           1.87379209245861    2.12899098260000    1.44221942887212
H           0.86569670933952    0.75633278062298    1.28318151080344
