    26
        -50.45201384  Gyration_radius:  2.60765863366 Dipole_moment: 5.373
 S          -0.19132197938265   -2.18203627089182   -0.20922116278394
O          -1.27947995573662   -1.30071635617518    0.15239374432690
O           0.15176211599444   -2.18262778764444   -1.61169799411120
O           0.96948540642580   -1.90752693653944    0.65221507641683
O          -0.64181844019831   -3.67161073628423    0.12038130994678
H          -0.33673489397625   -4.14427189348009   -0.64802863849441
O           1.19026409308182    1.99009102353174   -0.91995620779257
H           2.07806738172955    2.13798474092188   -1.24678825748906
O          -2.37949751067123    0.62712225710000   -1.35486935291358
H          -2.20470294288290    1.36226237419817   -0.74953048271076
H          -2.16833388501999   -0.17523394403884   -0.84251713249492
O          -1.25679566873713    2.69736204779328    0.23011626894603
H          -1.70775187338744    3.52045378430572    0.03735508263891
H          -0.43720428440205    2.69825122576824   -0.28790294307144
O           1.86548779473980   -0.89434351805659    3.09501738664326
H           1.67451096976899   -1.45506751711069    2.32578058748686
H           2.22663319959205   -1.47253067782131    3.76772493795981
O           0.02769526795094    0.34305408260726   -2.48552452045097
H           0.16675953237043   -0.60105041589028   -2.26879297758091
H          -0.92528689445560    0.49441098951647   -2.29100353928877
H           0.75879611221436    1.34194069055335   -1.57915590692475
N           0.48208493502260    0.57908109098978    1.23657864000203
H           0.63870880055025   -0.44042147103430    0.95129676679988
H           0.89315815340861    1.19753120155921    0.49421904400317
H          -0.52341615953841    0.74787597309852    1.28292424741830
H           0.92893072552914    0.69001603294036    2.14898604349659
