    26
        -50.46433722  Gyration_radius:  2.51974184819 Dipole_moment: 3.795
 S           0.99907586110264    0.36474863708541   -1.93138565448472
O           0.01532256980319    1.25315714661906   -2.51145513630595
O           1.96581773525947    1.08279183057230   -1.10354730953055
O           0.41024238312140   -0.75039941470961   -1.21150606546708
O           1.81198639998326   -0.26972140583408   -3.13084183391390
H           2.01947748692721    0.50085505207520   -3.64885297451479
O           0.04035529636071   -0.05185860579152    2.42671671717171
H           0.11290887365119   -0.23458361308485    3.36369087315915
O          -1.29231429574215   -3.19133023451574    0.59779512879022
H          -1.71788933522446   -2.31898898485884    0.50490540531146
H          -1.24473439822529   -3.55699508512301   -0.28722554951292
O          -1.61655291025436    2.09715122705150   -0.61781431230767
H          -2.02306613008830    1.25181949985047   -0.34936321886033
H          -1.13962320860672    1.89195478894901   -1.45313896631129
O          -1.76751693164493   -0.47653935670816    0.28521898284603
H          -1.02230888871189   -0.59375784801065   -0.34385422081644
H          -1.35463494989247   -0.30382591088292    1.14470790600222
O           1.10315803265145   -1.96596363785579    1.07030153285421
H           0.52500525119927   -0.80374805054411    1.95479198997605
H           0.36224294535172   -2.60480779737866    1.04572132307456
H           1.09180864692914   -1.55910183371402    0.18289180558820
N           0.55330304541649    2.06612167681529    0.82741595913984
H           0.89666367979982    2.93237320549801    1.22733197621846
H           1.22738189544521    1.69690232678894    0.08337011569649
H           0.42800018358609    1.33477136751991    1.55893932874935
H          -0.38410923819538    2.20897503018670    0.31518622743981
