    26
        -50.47168698  Gyration_radius:  2.49108620246 Dipole_moment: 3.008
 S          -0.90206573651967    1.12488099935230   -1.79554682907035
O           0.47098302895128    1.42675953225889   -2.18570960969390
O          -1.02959214385032   -0.28147385670266   -1.42078833391052
O          -1.43353860751214    2.01977246527677   -0.79931590759077
O          -1.77631293183864    1.32234934917576   -3.09958785748541
H          -1.28742880284544    0.80655672413885   -3.73139658624103
O           0.18130646227014   -2.07694789620976    1.73619576021665
H          -0.03218154230139   -2.76294648140116    2.36884244073800
O           1.43071671073440    0.37394042790634    1.85415329028548
H           1.09405659284191   -0.53203947204851    1.97824263526158
H           0.64079986991633    0.94680383882859    1.88745706791981
O          -0.90821140275843    1.75993777810562    1.72055836551950
H          -1.14426729877829    2.57807307497830    2.15986484824374
H          -1.09165984510337    1.90481429363399    0.75724553704190
O           0.82334765956239   -2.17210404652812   -0.93715081620356
H           0.64223864109166   -2.35956756405362    0.00185978675669
H           0.05364568875085   -1.65143659649339   -1.23903654850934
O          -1.94440526403322   -0.74382955115822    1.04683456989905
H          -0.68312207762877   -1.62517464722569    1.50670040821705
H          -1.81429676223369    0.11954751102299    1.46561867509504
H          -1.75649335350957   -0.59405463908989    0.09758187464741
N           2.12423917191678    0.09273188332954   -0.67732545909976
H           1.51667365491884    0.71001547238276   -1.29056431696897
H           1.94013502852990    0.31375293293820    0.34597277511330
H           1.78096969861026   -0.90251898202431   -0.84010858480090
H           3.10446356082269    0.20215741960213   -0.91059717537819
