    26
        -50.46286127  Gyration_radius:  2.61371972071 Dipole_moment: 3.457
 S           1.02698186098243    1.02456524413684   -2.08838650746478
O          -0.05162346408888    1.35386998997643   -1.13200608271745
O           2.32731230451100    1.14765266651634   -1.45382016637900
O           0.76390974036233   -0.22096514532821   -2.74501129343603
O           0.97873260347967    2.17417597118095   -3.18579586083007
H           1.41477726526705    2.90075385703004   -2.75076382230132
O          -1.20741567260004   -0.43780257899832    2.41979358770852
H          -1.29914502405979   -0.30533297656598    3.36364633772222
O          -3.23746584126832   -0.58027127449776    0.61184156205928
H          -3.55214912062969    0.32313399660369    0.54594470804590
H          -2.59675865319976   -0.59333001158691    1.35232977937070
O           2.47446342514523   -0.28911315249106    0.68873093899748
H           3.38030355364756   -0.59395621875014    0.76069957448683
H           2.43698913285457    0.24099731124076   -0.15222640711151
O           0.41179154395930   -2.05681381061365    0.84465352619628
H          -0.11094969547019   -1.69264238223707    1.57804038196772
H           1.21842013199106   -1.50665193952481    0.79063382230245
O           0.40577113865889    1.38318908317761    1.49184124334570
H           0.19358221525739    1.51817207347106    0.54473309687437
H          -0.63447808544101    0.31271900984563    2.08458095996635
H           1.26442416214233    0.93552185771302    1.47845342826254
N          -1.14482698716672   -1.02394912419045   -1.02405980390674
H          -0.76965468690469   -0.03601580451419   -1.08735925902542
H          -0.49934325219496   -1.55728226529310   -0.36679272734551
H          -2.09998231534795   -1.00393830132483   -0.60961388398514
H          -1.09366628011858   -1.41668605714145   -1.96008717322388
