    26
        -50.46975292  Gyration_radius:  2.4454750857 Dipole_moment: 3.690
 S          -0.67278079054316   -1.55312941363088    0.86861699799568
O          -0.66968322957943   -1.38952609632528   -0.57256770605000
O           0.45255534846428   -2.30354300908213    1.36857897150627
O          -0.84378259689570   -0.26214857979430    1.53977020831131
O          -1.96525332137116   -2.39215423143402    1.24667754482798
H          -1.57211547884721   -3.23437754228625    1.44588653149453
O           0.77191301202131    1.93344147413325   -1.55819080525520
H           0.77435136121550    2.77214719994030   -2.01999261018951
O           2.66673869826309   -0.98989918827717    0.65255706127722
H           2.55539732717725   -1.04462836402633   -0.32529623591948
H           1.99596039467767   -1.60882746536363    1.00811650858924
O           1.68096913812535   -0.80074817551457   -1.80137520846295
H           0.82329202810158   -1.15150724370344   -1.50244052624753
H           1.52593804411684    0.13473033790422   -1.98400634365110
O          -2.87518000144752    1.22014931249369    0.66971583595865
H          -2.16494767069746    0.68798562690127    1.08334568702459
H          -3.68523361485661    0.72266351810218    0.79192795842704
O          -1.57731553601586    0.87019409052315   -1.68698553107911
H          -0.15830061311220    1.55951998764880   -1.65954490817862
H          -1.33176600620394   -0.03770310413602   -1.42327229905810
H          -2.14154526176129    1.18896394985288   -0.95638970278941
N           1.28856482624841    1.16901659480136    0.97390278011819
H           0.39067629669430    0.70941702783015    1.27473014897218
H           1.99781281456389    0.34568413768457    0.89102255864513
H           1.14656695423714    1.58919270113933    0.02731957706319
H           1.58716787742657    1.86508646462038    1.64789352667047
