    26
        -50.46975293  Gyration_radius:  2.44524336158 Dipole_moment: 3.669
 S          -0.22570517593078   -1.85120562962849    0.36971779069507
O          -0.02756937322594   -1.32837786338764   -0.96870570714197
O           0.98489304833841   -2.33264410954606    0.98759811491144
O          -0.95168404667626   -0.89010440055653    1.20352200554689
O          -1.18937478101561   -3.10590954324898    0.24919630493356
H          -0.56678087604563   -3.81459234016359    0.36725811429483
O           0.30320741491422    2.41094726568023   -0.92752245702726
H           0.09118814567907    3.30067219154393   -1.21063280186797
O          -3.19186119380108    0.07331641534746    0.13882205816438
H          -3.77882011281744   -0.66219645746600   -0.04313731306142
H          -2.42299584739424   -0.30408936585950    0.61326588188496
O           2.14216089752570    0.23811870363929   -1.43778441241669
H           1.42411329699561   -0.41944046637753   -1.43402797419566
H           1.70297257147740    1.09725192245979   -1.47655625806764
O           2.68630386896581   -0.27505492227313    1.10591368459823
H           2.77386137632900   -0.10583180041709    0.13882759005841
H           2.22387765456156   -1.13675340176441    1.16082989262788
O          -1.46211270337971    0.75989102344339   -1.83535147797959
H          -2.22124002519080    0.69217362170905   -1.22471223077701
H          -0.40341652571465    1.81334138010445   -1.32610373235628
H          -0.96282963886164   -0.06726335329154   -1.69143586710037
N           0.60671349560034    1.21133888823256    1.46641403380635
H           0.49381579890226    1.79884748132574    0.60918587061673
H           1.56193720673476    0.68960371563856    1.41277084678207
H           0.52045149355919    1.76609050787124    2.31065390754823
H          -0.11110597952864    0.44187052698330    1.44199411552413
