    26
        -50.46975342  Gyration_radius:  2.44510179077 Dipole_moment: 3.668
 S          -1.73320675855285   -0.47307121253338    0.61748968782979
O          -1.24110129195862   -0.81533852961042   -0.70330487650127
O          -1.58890534844804   -1.53535641906217    1.58182056898772
O          -1.16312562215874    0.79674547457630    1.07427589850751
O          -3.29159910537461   -0.20446697589793    0.48637377660503
H          -3.63773692506605   -0.99865730632391    0.87768996172443
O           2.24342016386401    0.48084129157844   -1.22689970085496
H           2.92792567141130    0.95163339329111   -1.70280451408280
O           1.01783350222143   -2.10131602899835    1.74987025256365
H           1.16288862388390   -2.38757964548352    0.81787154682174
H           0.04383744838651   -2.04879280967970    1.83903794954369
O          -1.37749374418851    2.81007741189103   -0.65232947428646
H          -1.33976938445022    2.13172843375456    0.05267804610525
H          -2.30731500252414    2.94411503378711   -0.84231370516686
O           1.11159312531437   -2.15992601665273   -0.89913146853876
H           1.67732773538013   -1.43294402514048   -1.18894440902216
H           0.20179517481097   -1.81773332016661   -0.95530561144975
O          -0.06663314562139    1.03979014261761   -2.23598518623861
H           1.37346418266778    0.72162888033451   -1.67462909767166
H          -0.57165256043618    0.30521888639285   -1.83662472256050
H          -0.44354641740299    1.84171273482307   -1.82536658108708
N           1.42448756840762    0.41469535792496    1.33974599433808
H           1.91959675815290    0.96733250424673    2.03067386894953
H           1.85721883959431    0.50831148527104    0.39289852259050
H           1.38677136443728   -0.64100462360678    1.60734644509890
H           0.41392515765186    0.70235586266740    1.27586682779471
