    26
        -50.46004300  Gyration_radius:  2.60618660986 Dipole_moment: 4.104
 S           0.22842444826044   -2.13523304955270    0.54258418425904
O           1.14811897972886   -2.56093816683711    1.57296901612672
O          -0.81274319716710   -1.24334361533595    1.07672105934742
O           0.86548072607565   -1.54922000747295   -0.61334472775264
O          -0.52956738635411   -3.43461266583836    0.03985141842589
H          -0.67713884154871   -3.94656802531280    0.83001740026076
O           0.23643908592191    1.97275987673470   -1.54403490393860
H           0.97531497908796    2.14060755622320   -2.13039627239443
O          -2.80222440990990   -0.68055323363765   -0.59858337401250
H          -3.32907064731476   -0.01284410983682   -0.15682463188461
H          -2.13155793860340   -0.97519241124566    0.05131774997597
O          -0.50206913396071    3.44944630187870    0.78057240760593
H          -0.40837516485055    3.15498668005366   -0.13685684159738
H          -0.99587950509233    4.26949574648858    0.75988644136552
O           2.82513014380970   -0.57192115102213    1.18430291009730
H           2.32504960561097   -1.36147073587561    1.49142623158490
H           3.04146628848206   -0.77802152601678    0.27026499416451
O          -0.74109025011967   -0.26834582443145   -2.33112899201216
H          -0.12503877920507   -0.84504102933193   -1.83559554809155
H          -1.61040268171021   -0.42158624564093   -1.91763078849723
H          -0.21954456619672    1.15187301122042   -1.91863256037649
N           0.65347325075860    0.94383920021336    0.93268402675873
H           0.59033886976859    1.28383134081273   -0.05712062964966
H          -0.04167311206298    0.16416736080349    1.05874013201684
H           1.60040559065197    0.51588305473051    1.11252494025108
H           0.43673363593260    1.73800167822914    1.53628636796952
