    26
        -50.47395400  Gyration_radius:  2.40831975263 Dipole_moment: 3.050
 S           0.82015876595127   -0.46225990599784   -1.48845557205787
O           0.70622859353779   -1.41575257180964   -0.39256394368955
O          -0.26782698187997    0.52177545589993   -1.43397637460151
O           2.11748788512053    0.17434438390927   -1.52781040580271
O           0.63650071350241   -1.25655454238102   -2.82816454931578
H          -0.29917058343521   -1.51152962715272   -2.82602198592665
O          -1.28490773735029    0.28500873930609    2.20294068770945
H          -1.90374612761387    0.20757750052699    2.93011479768760
O           1.32503154934063   -0.63852228482254    2.09877499831555
H           1.19743145118209   -1.13327216773237    1.26471914400545
H           0.42859768161334   -0.34572825709556    2.34437658358915
O          -2.05326006777886   -1.07576344922079   -2.36818909260318
H          -2.59073580002094   -0.69648875120666   -3.06602151795046
H          -1.52148609318139   -0.33668807433974   -1.98604511774239
O          -0.30800510638333    2.28245300848611    0.56364670597687
H          -0.75172034914860    1.73744065215501    1.23663516837501
H          -0.40432465175026    1.76997141501912   -0.26521365591383
O          -1.79683966421408   -1.60934086553386    0.44058623204252
H          -2.29333929917557   -1.53253190056460   -0.38145219100470
H          -0.86047043131946   -1.67660722039256    0.15644840554250
H          -1.55790011419513   -0.39583386148514    1.53500177233880
N           2.16606521411498    1.44762109361074    0.76851214770958
H           1.24653899032132    1.98747148474988    0.73442020662222
H           2.29311505795082    1.01045049895528   -0.18452652110196
H           2.95718640565007    2.02557375160059    1.02827399508506
H           1.99939070103692    0.63718548521288    1.44399007330244
