    26
        -50.46004316  Gyration_radius:  2.60631302027 Dipole_moment: 4.098
 S          -1.18363917492931    1.79223329930741    0.53375031999692
O          -2.32691296907354    2.20700496094096   -0.24697163574470
O          -1.37952253861634    0.45625662903902    1.11831466154734
O           0.07353289172787    1.86647580190175   -0.17292503587167
O          -1.07942142923121    2.79146423553766    1.76110145836890
H          -1.98260395079559    2.94339734819525    2.02457516481723
O           2.06940691229107   -1.17500701430934   -0.81831604822530
H           2.65219120702915   -0.86442627969360   -1.51246922135005
O          -1.40193305541741    1.21925065253956   -2.50288162804815
H          -1.92021277198483    1.62853437734488   -1.77379281685044
H          -0.60466661998989    1.75510999455503   -2.54736542724008
O           0.45471995148195   -0.28263436557173    2.89924026402581
H           0.25621949329490   -1.19607428394295    3.11132135200947
H          -0.27663846046067    0.03210695542663    2.32915052591806
O           0.34489854730520   -3.44464668831598   -0.89012922601178
H           0.63467427373822   -4.34302452797286   -0.72985844961544
H           1.12194233945443   -2.87654711326677   -0.78720355910203
O           2.15761645527663    0.64955981611629    0.98770733302450
H           2.18703227057009   -0.51858601933199   -0.05858011230908
H           1.48687129535073    1.23998907826375    0.58875375721482
H           1.74791267289198    0.33142380597373    1.81287409961140
N          -0.61727002470087   -0.85790296299977   -1.03729780016904
H           0.43074851060239   -0.88312398421548   -1.01900980406809
H          -0.95410730712105   -0.47786565815280   -0.11585987320534
H          -0.95374481253993   -0.17702555199457   -1.76889675210643
H          -0.93709367615877   -1.81594249537178   -1.18523156661116
