    26
        -50.46130696  Gyration_radius:  2.45980838796 Dipole_moment: 4.239
 S          -1.49113969606811   -1.42592451159967    0.71300601887655
O          -2.04698566971248   -0.24861464049351    1.33921155830364
O          -1.70886686440947   -1.50985940884957   -0.71341405425278
O          -0.06600084967208   -1.56238013427784    1.05757560929615
O          -2.21783437330477   -2.67908229538510    1.35240420555695
H          -2.04418058693351   -3.38496409620171    0.73649613873305
O           0.11233287522206    1.76682089763169   -0.92143329535623
H          -0.86816050396685    1.85745227751599   -0.96432510518308
O           2.26737010082667   -1.34924608845731   -0.36264013849241
H           1.53528150104658   -1.61981388656785    0.21393352563936
H           2.54955623615358   -0.47590980680961   -0.05330938485612
O          -2.48729858979025    1.27875072510932   -0.80436659921939
H          -2.59823913535931    0.58949452276352   -1.46579189505190
H          -2.47371030519671    0.79574966348987    0.04466932428989
O           2.75781585687722    1.43029668824697    0.11938741618298
H           3.58914491112090    1.59558550090298   -0.32840624077841
H           2.06044103235003    1.76523729018969   -0.46173088332307
O           0.37737051534575   -0.51848231658195   -2.10472660206628
H           1.15057792960708   -0.94071399351901   -1.67751506967116
H          -0.40453046414448   -0.96410400870754   -1.72733783371563
H           0.27466658335417    0.94147337981493   -1.47227685945962
N           0.36089521323404    0.94748487465903    1.52832036217219
H           1.26569487031377    1.22070741184638    1.90558418894768
H           0.27306954551123   -0.11145501842830    1.43156426063986
H          -0.42230031997567    1.25457798088600    2.10079995910329
H           0.25503018757130    1.34691899281173    0.51432140368045
