    26
        -50.47229300  Gyration_radius:  2.48030849321 Dipole_moment: 1.995
 S          -2.22727913200507   -0.26088231544005   -0.40625076393112
O          -1.12688411466618   -1.20988771236378   -0.54645075670818
O          -2.58983004496260   -0.05756485221278    0.98293192266507
O          -1.97344232801905    0.96545668530755   -1.13425619939609
O          -3.49150104537042   -0.93007066118135   -1.08861794587907
H          -3.80045792252890   -1.50069036087981   -0.39290163571165
O           2.52476139184180   -0.92205672845770    0.48295508839191
H           3.26491875259589   -1.40528646201983    0.85052546852646
O           1.18778983064953   -1.18136609100347   -1.91979577991041
H           1.80970995030525   -1.21382854856531   -1.17064166000722
H           0.31889534452488   -1.40251817561392   -1.53228705054677
O           1.62147355706352    1.67564723480445    0.59033967084912
H           2.11146538757492    0.83378671599190    0.61272848138013
H           0.85862553458074    1.54674909937062    1.18525291841075
O          -0.56627545092701    1.08181537987292    2.12851795687708
H          -1.36341131047608    0.69511030841327    1.68356775426791
H          -0.90240690119087    1.71313155178912    2.76661866710362
O           0.29453443925071   -1.54591434252342    1.67721585780858
H           0.04833157982227   -0.74477098154901    2.15975605185948
H          -0.29646695279633   -1.55302433660303    0.89546462161560
H           1.71128379308031   -1.22912409328598    0.97809212094130
N           0.52590804921185    1.35386738451091   -1.78553911934800
H           0.69721838684540    2.01939730769878   -2.52994150932650
H          -0.51000746275427    1.25946304997732   -1.58704729294649
H           0.87365371256691    0.37564503628236   -2.02341006300491
H           0.99939296578066    1.63691588768609   -0.87682682398573
