    26
        -50.46058438  Gyration_radius:  2.53696989359 Dipole_moment: 6.712
 S          -1.96156850701855    0.89159533757105    0.48565074217597
O          -0.59887244808722    1.29583905196230    0.77875009551498
O          -2.33525089106916    1.06109073247540   -0.90083965362380
O          -2.22545019032475   -0.46695878364558    0.96098559994254
O          -2.90505748406240    1.85253327853714    1.31803719141137
H          -3.71508326382347    1.76548163992510    0.82765348477061
O           1.06378651691784   -1.05212659100699   -1.57193795648824
H           1.43007229199442   -1.47634539434204   -2.34863873553175
O           0.94613554858878    2.84644871817321   -0.76976431643974
H           0.29529757738440    2.46589984446509   -0.14871035279602
H           1.80594333484503    2.63003768751975   -0.40057528128591
O           1.57436080031311   -1.95025871868867    2.23744459600295
H           1.77474575735260   -1.05794934373366    1.85133342224166
H           2.41129592850603   -2.41105102490196    2.30522869500075
O           1.86985338266553    0.23242788982644    0.79590268491721
H           1.81316017904153   -0.15229296319814   -0.09174560967243
H           1.00790619872196    0.67077803253147    0.93003340844889
O          -0.17127437011303    1.00685640302446   -2.42007978522091
H           0.30010717352950    1.77805487540501   -2.04516391668149
H           0.56044956130603   -0.23605646749769   -1.92196208849072
H          -1.04664324251990    1.02392724080835   -1.97667170265598
N          -0.37827726218039   -2.16644193806240    0.41547602898168
H          -0.79623682691188   -3.07334828414097    0.23818371636189
H          -1.15362913095000   -1.45677402773237    0.67253740780649
H           0.30811426537755   -2.21412753446972    1.20737103939725
H           0.12611508050367   -1.80723965076153   -0.42849871391845
