    26
        -50.46547888  Gyration_radius:  2.52168892501 Dipole_moment: 1.514
 S          -0.69167611063979    1.95379114162123   -0.09392594777233
O          -0.42024564376897    1.38047216143056   -1.40289953600454
O          -1.38532810971740    1.04698082482986    0.79241473066317
O           0.50837153942693    2.50759981991619    0.52263681060826
O          -1.67698546970642    3.16837680391395   -0.35513324990371
H          -2.00377998102826    3.33562670705426    0.52239486927552
O           1.32866740023953   -0.96522134044852    2.76522795375646
H           1.00722181306524   -0.50412592623458    3.54155142590922
O          -0.57296675897438   -2.36838140945500   -1.17824328928056
H          -0.90803034170236   -3.23955012562079   -1.39355029780229
H          -1.22293490373361   -1.71584579849474   -1.53889689948478
O           1.45964573900388   -0.52094668233179   -1.49683850641396
H           0.82309456141189    0.21001541919601   -1.63489810175534
H           0.91092795306467   -1.31608867703784   -1.39933139897816
O          -2.13544235284623   -0.45856257209736   -2.15714178954708
H          -1.59543690739200    0.28723635719696   -1.80884853054092
H          -2.18279871508108   -0.32236002996845   -3.10537659951166
O          -0.83861360615674   -1.49189085237039    1.43941277346231
H          -0.71239739084165   -1.90177703248137    0.56757677822221
H           0.50691842223680   -1.28583811481982    2.29166235978237
H          -1.14918311918546   -0.58386675460227    1.25249094858639
N           2.21410204832511    0.55690881996148    0.78457322977954
H           1.57165984775876    1.40361578559773    0.73673409646930
H           2.04269709537227    0.01765826581945   -0.11506180553606
H           3.18336255316527    0.84815455678404    0.84966346709243
H           1.93915045773133   -0.04198139736072    1.61380650890925
