    26
        -50.45689046  Gyration_radius:  2.60221228971 Dipole_moment: 5.422
 S           1.11765112826393   -1.69266831477822    0.69084163106944
O           1.28040621037681   -1.29905047523323   -0.69321026917877
O           1.72580663214498   -0.71658759374021    1.59230170319768
O          -0.26182179969603   -1.98302856485864    1.04183789184929
O           1.91202573128309   -3.04664276946096    0.89979109473913
H           2.81129836475924   -2.78493812224937    0.73047721386798
O           0.53378997528041    1.25286546562664   -1.85577702251975
H           1.35936703036715    0.75701562310191   -1.86617445479807
O          -2.53273312494450   -1.67270315585536   -0.45217801714732
H          -2.90162212326129   -0.99100668282370    0.11560240069980
H          -1.76238784247918   -2.01969760264908    0.02896801512360
O           0.83609160060297    3.71803967467859   -0.43093435617152
H           0.94210092537671    4.58529272682102   -0.82290203076422
H           0.73200493985909    3.09179545303341   -1.16139815717881
O          -1.73022281092526   -0.01448307727357    1.97700310859253
H          -1.21229898648392   -0.80697049786195    1.69480139811559
H          -1.83140871986118   -0.08992923243428    2.92686541435848
O          -0.80286747449305   -0.90383148739353   -2.41004296597067
H          -0.12523511324002    0.58298507119079   -2.18814251037413
H          -0.05579643898603   -1.30235599664414   -1.93072850720615
H          -1.58906629082252   -1.15319686214780   -1.88986604164350
N           0.30651934679139    1.31467221585634    0.81388864128038
H           1.00346109002174    0.60330447801261    1.18214218864882
H           0.57696570848031    2.28058151765541    1.00790603914725
H           0.27861403128761    1.22117443801018   -0.23825189085394
H          -0.61064199970656    1.06936376142210    1.23717947311631
