    26
        -50.46004286  Gyration_radius:  2.49775377418 Dipole_moment: 7.420
 S          -1.95164263321474   -1.06057582704509    0.51166851734667
O          -1.49061277641121   -0.87718011483393    1.87435157644369
O          -2.58763026625303    0.08827227864104   -0.07582343236366
O          -0.85298554196319   -1.58949499135401   -0.31644956939689
O          -3.05580541473848   -2.19742671846799    0.53815393396303
H          -3.73933857290732   -1.76956236851824    0.03417008508444
O           2.32081825395055    0.33719397920549   -1.28191337570469
H           3.02443952119298    0.32833821747750   -1.93084818236361
O           0.84780588378864    2.26800267969278    0.23785747808980
H           1.49478630495661    1.76824115623594   -0.27715798473594
H           0.71389661276092    1.77990675398377    1.06187718800428
O          -1.24017137621810    1.94675778630006   -1.54510788905936
H          -0.58491680165307    2.27795498297292   -0.90479690847935
H          -1.86163920735543    1.40569151641824   -1.02868608958229
O           0.56005562219863    0.53880493481366    2.45904926635581
H           0.52825152076686    0.80531641406560    3.37892159679374
H          -0.30435908855005    0.07673379014440    2.27364414975895
O           0.09080070167528   -0.13858971871899   -2.42145282820126
H           1.45376007966164    0.18199360268298   -1.80287876476250
H          -0.33194819775394   -0.76996990859667   -1.81368196784014
H          -0.42183614136119    0.70286205000861   -2.28711589228911
N           1.50487995969341   -1.23870409791598    0.67649861783315
H           0.52281640958888   -1.46955716502775    0.29511473117128
H           1.99593293610895   -0.68990525926666   -0.07884910293010
H           1.35896948901568   -0.62056568513902    1.49945829699804
H           2.00567272302066   -2.08453826775856    0.92399653986575
