    26
        -50.46263489  Gyration_radius:  2.56791983394 Dipole_moment: 3.578
 S           0.35085517921359    2.29377688068888    0.47883694983555
O           0.74352353783533    1.76328087572309    1.76672495334495
O           1.44811486465867    2.51062380911515   -0.43222735596715
O          -0.74268216733567    1.50352570981427   -0.10096324767446
O          -0.29953750242715    3.72341137234697    0.73626413735950
H           0.46623076174827    4.28263303795273    0.81709289868176
O           1.63273349433512   -0.72077093935718    1.51211343537263
H           1.60025048481261    0.21049972214862    1.80684137802645
O          -0.17014621703134   -2.26467967686279   -1.46575745349737
H          -0.39916684269582   -1.42795577065347   -1.91311151171868
H           0.71284951528782   -2.12787440879149   -1.11052793049925
O          -0.52416642512390    0.25696337860802   -2.41550794795356
H          -1.14096201232207    0.63497270042109   -3.04309261106421
H          -0.61691684817238    0.77852756418639   -1.58534463616326
O          -2.05873505704111   -2.70168866604201    0.33680923653225
H          -1.96075870504637   -3.59454191022743    0.67039699753154
H          -1.43040160102409   -2.61954881955488   -0.42159506374827
O           1.95292307181349   -0.01500546293969   -1.06785513823051
H           1.37468926662778   -0.07146765920823   -1.83767307043228
H           1.95306922333924    0.93830023633541   -0.84962364559074
H           1.89397707302725   -0.65249576603908    0.57243142613764
N          -0.98245409853713   -0.55277786158523    1.52138862068946
H          -1.51965126749791   -1.36693285016296    1.13742450912219
H          -1.31762032969484   -0.27494308667527    2.43756696680602
H           0.06208569390146   -0.78460679345726    1.57652886470866
H          -1.02810308266091    0.27877441422406    0.87285926840368
