    26
        -50.46263495  Gyration_radius:  2.56892223866 Dipole_moment: 3.557
 S           1.03832896116759   -2.13118992525668    0.04108481700276
O           0.59832639539620   -2.57804932139075   -1.25817768397619
O           2.24102286302099   -1.32684507186887    0.01721743908664
O          -0.01716956847118   -1.47101036210539    0.82044016179293
O           1.36719767431081   -3.44770493141012    0.87292371565061
H           1.80215403289682   -3.99249164192477    0.22489200908422
O           1.76606958489874    1.00924706978236   -1.14311391522917
H           2.22683845987772    0.17378467185327   -0.93187469582907
O          -2.33550909429746   -0.78917271645594   -0.23529844894974
H          -3.03686126483965   -1.30581880341923    0.16262632358028
H          -1.49405090355556   -1.10465441120716    0.16780514069410
O          -1.88444780355063    1.87843784041165   -0.51221842607799
H          -2.19401540094398    0.96663673816831   -0.35504994610549
H          -1.24403299383385    1.80931740542283   -1.22606971519212
O          -0.92524473940038    2.75555437450659    1.79536901213048
H          -1.40396189496578    2.48962396007535    0.97297947969517
H          -0.77364959977186    3.69896725902021    1.72379383533872
O          -0.35288220897878   -0.28073879848026   -2.18545717322010
H           0.04864389729267   -1.15805481912623   -2.02625113404392
H          -1.25763353693323   -0.38442620732348   -1.86702786619869
H           0.99894431657992    0.71688954155145   -1.67517483275434
N           0.96672954811931    0.91008214037925    1.34983040000398
H           0.52959565033896   -0.04761000887034    1.27382073149331
H           1.30499118220622    1.12300544687537    0.35549137061696
H           0.26759169268748    1.62609605537495    1.66123426032321
H           1.76302476079073    0.86012450544976    1.97620513108911
