    26
        -50.46911894  Gyration_radius:  2.45479386079 Dipole_moment: 4.004
 S          -0.46986362116597   -0.91192795325875    1.99088552340154
O           0.76941716091872   -1.40633218135517    2.51657189610095
O          -0.48848532597602    0.52556680746863    1.75709586150612
O          -0.92561195473722   -1.62158551612377    0.78976062454639
O          -1.57394350697747   -1.19597707316778    3.10151671604158
H          -1.11222263039739   -1.77091947799411    3.70393126615866
O           0.50171216262273   -0.34014587989998   -2.62879610957129
H           0.82630040610148   -0.73363818794766   -3.43896250380692
O           2.03112979299778    0.59412867980874    0.98716130770061
H           2.54103211743765    0.22360533174461    1.71155310654565
H           1.11410102900506    0.64916732291554    1.33274996298929
O          -1.34307946002269    2.22474469187857   -0.13448167455269
H          -1.12355149169698    1.83944741429136    0.73303243365044
H          -0.46880698071051    2.39958565256859   -0.55642863763078
O           1.08432180717543    2.06683948488656   -1.24284530696342
H           0.97441374176097    1.33102448017079   -1.86272698268843
H           1.61221952766926    1.72186772581528   -0.51043294169905
O           1.42078553908746   -1.57193823606634   -0.54675656612442
H           1.84559281797304   -0.86349958409829   -0.02518491792473
H           0.63800248372784   -1.82309630975101   -0.02674493257819
H           0.91383701233192   -0.86070725132144   -1.87466793381507
N          -1.77836977346763   -0.10465100393976   -1.17517606453603
H          -1.71519868775498    0.91364359794287   -0.79651134407308
H          -2.70250281666031   -0.32514636498720   -1.52779422877492
H          -1.05170832843912   -0.21669202261970   -1.90876837513398
H          -1.51952100199481   -0.74336413764980   -0.36798015844736
