    26
        -50.45493805  Gyration_radius:  2.63861266297 Dipole_moment: 5.977
 S           0.71352045045466   -2.57681271117498   -0.19426228123323
O           0.70668291313020   -1.54426943210772   -1.21154201339566
O           1.63639730431394   -2.20812015388445    0.88840040985804
O          -0.60123429805589   -2.93092012600526    0.28911030286486
O           1.31616222699864   -3.88440771243855   -0.86204750960912
H           2.11383251843730   -3.57208634100369   -1.27910542133180
O           1.40562445969415    1.81995515797849   -0.70250446124151
H           2.27951102365457    1.70745664684470   -1.07732900289559
O          -1.72773732233968   -0.83111053026335    1.24032751023023
H          -1.36552598755272   -1.65991490551973    0.81852785880214
H          -2.31116685259179   -1.12865225247942    1.94044464743745
O          -0.57641271865958    3.00487004325152    0.80898204745823
H           0.18749081214723    2.79287011426600    0.24958376769285
H          -0.83788696172507    3.89939535668100    0.58632613688385
O          -2.24777174828650    1.21661167352586   -0.55489167561113
H          -2.25973788235065    0.41382972937061   -0.01351462715197
H          -1.80347523587979    1.88759972828127   -0.01043166839357
O          -0.24933043824869    0.71424529744780   -2.28373287629371
H           0.00996323189174   -0.19832649957367   -2.05823359489467
H          -1.10092814988768    0.87271464390798   -1.81869044646692
H           0.75909880256533    1.43546076169911   -1.39949005593655
N           0.79592954949156    0.17278787173399    1.34257151321046
H           1.09218619073756    0.59398004455274    2.21748776262222
H          -0.23119471411839    0.00572748993034    1.35467014446081
H           1.05226994261607    0.79761266214481    0.53443916947803
H           1.24373290353869   -0.80049656716609    1.19490436347685
