    26
        -50.46303752  Gyration_radius:  2.72373158202 Dipole_moment: 3.446
 S           0.48540176456553   -0.75941744939009   -2.35409082888753
O          -0.43694597687869    0.21944529616872   -2.89861997623735
O           1.56579534366203   -0.12765443981535   -1.59166681858175
O          -0.14969183418618   -1.81366104609451   -1.59387168510905
O           1.17197888126388   -1.46288351888003   -3.60195070793743
H           1.38441007646571   -0.74819407410930   -4.19551699754919
O          -1.27538241528630    0.79673988031119    0.75529371174747
H          -0.86514143841309    1.46280087048945    0.15121896890054
O          -0.55476901173169    1.03873014850564    3.39196197970710
H          -0.89605983839790    1.08306582543477    2.48044541855089
H          -1.30045882323980    0.80937460220670    3.94829791573516
O           1.71852794056091   -0.40100730642940    3.21844234488509
H           0.91191827123906    0.12300523931471    3.41585991919741
H           2.46318404217777    0.17402506079268    3.39987858209573
O           0.00494242059619    2.14061785588485   -1.12994785768091
H           0.94496407181848    1.95712425170095   -1.04011799844906
H          -0.26912743035359    1.56755615528452   -1.87603921396113
O          -2.47554704817468   -0.60475830880742   -1.13172328164407
H          -2.46158480735279   -0.03526029490024   -1.90774221653346
H          -1.73362668589409   -1.22230249366100   -1.28845520158425
H          -1.90810123561479    0.30455892468375    0.17580069971971
N           0.75511242483134   -0.91590023539463    0.75627157478455
H           1.27669969027723   -0.59043800370968   -0.10462917886176
H           0.43400156259659   -1.85881638108918    0.54216491885172
H           1.30150537941195   -0.86027331473673    1.64314201224099
H          -0.09200532396472   -0.27647721373989    0.83559392660742
