    26
        -50.45118738  Gyration_radius:  2.60823714405 Dipole_moment: 6.434
 S           0.21605279358632    0.51276108582125    2.16259502369968
O          -0.16788849402539    1.54837933411396    1.21575869768852
O          -0.82492169074451   -0.52630998765147    2.18156019624875
O           1.52844065325137   -0.03130795352941    1.95184489448114
O           0.19977101208372    1.19728027227506    3.59495375807427
H          -0.50777151223465    1.83024855392020    3.51595381849786
O           1.03943059278664   -1.36990710822618   -1.70739467454438
H           1.40437437749905   -2.25408683451437   -1.66325748244228
O           1.15495699614087    2.35076823358980   -0.96549183507279
H           0.69990107251940    2.21885505849208   -0.11152163853554
H           0.54107639684488    2.01153099419918   -1.63185557661126
O          -0.39149194412739    0.78355872995726   -2.77961072392173
H          -0.25520452892127    1.12895062253871   -3.66292971756429
H           0.21133962478782    0.03092030318537   -2.67659997318635
O          -2.75719311471979   -2.21744462843951    1.12235270672827
H          -2.15999334521963   -1.72014510915851    1.70490301743645
H          -3.15189524969515   -2.90292471874290    1.66229375911465
O           2.62220271197666    0.17565853926128   -0.46665683784126
H           2.37270359518579    0.06602300566264    0.47433374866420
H           1.72425087572024   -0.76757226261328   -1.23228603735329
H           2.28993767416862    1.07196451991475   -0.70312545130819
N          -1.16744046125281   -0.62485750392959   -0.41256315769515
H          -1.37581784355128    0.26089118467621   -0.87482213491632
H          -0.31701737676342   -1.04121170933053   -0.88244698538030
H          -0.96268675964455   -0.46429337007276    0.61891026664216
H          -1.96511605566441   -1.26772927138861   -0.43489766090148
