    26
        -50.45118723  Gyration_radius:  2.60826122834 Dipole_moment: 6.435
 S           1.04617685027004   -0.82061133166108   -1.79392993264482
O           0.85495786256813   -1.66745840658629   -0.62659902352127
O          -0.27039036249153   -0.44732507020703   -2.33349618077068
O           1.88987403121267    0.32022826845134   -1.57141022850239
O           1.74382295910889   -1.73228992646527   -2.89057503286667
H           1.36794528050513   -2.59054058424061   -2.71892025510436
O          -0.17862989434737    2.04746793718532    1.28386052138379
H          -0.21290238823150    2.96174706062995    1.00126330059070
O          -0.85229752995948   -0.22131880800690    2.77820045878465
H          -0.85904632846090   -0.24772547299831    3.73600171403796
H          -0.61010453386164    0.68272844901682    2.52419937393857
O           1.66702091456881   -1.21492163544010    1.88088067438847
H           0.79890699907424   -1.07227492922162    2.28337214188720
H           1.47790404019864   -1.51606135119513    0.97131644846967
O          -2.94545621997447    0.29486087529186   -2.23957717588567
H          -3.40403755134996    0.56198278443369   -3.03680413827278
H          -2.05239230458123    0.02909158428201   -2.51363031845266
O           2.19063361360459    1.21987856665579    0.91634398875944
H           0.80077052113994    1.75959025729536    1.15946695054309
H           2.20015337531092    0.35465218985763    1.38643905522092
H           2.21358282285260    0.97921644381604   -0.03300186380927
N          -1.38529341124921    0.06041108544727   -0.01913728389175
H          -2.34222960599463    0.22585771467116   -0.34622993460839
H          -0.83310241641778   -0.21131506700206   -0.88681350720322
H          -0.96434735580429    0.92891445883405    0.41192138301091
H          -1.34151939770856   -0.68478506284003    0.67685885452607
