    26
        -50.45260128  Gyration_radius:  2.49744134813 Dipole_moment: 5.354
 S          -1.04378277277964    1.50052698756361    1.39944817809686
O          -1.73358927309719    1.42883149501085    0.08642759126900
O           0.39487566373615    1.22458241540046    1.16990255220405
O          -1.28011688866651    2.72090173359873    2.08974389654583
O          -1.58697467662713    0.31467568972254    2.25763857318319
H          -1.37883456709603   -0.52545720744873    1.79154549306113
O          -1.18488363460123   -1.98456967115880    0.96539254013995
H          -1.95994821672813   -2.52906959628489    1.11464470694265
O           1.03138146393283   -0.02210520188145   -2.32411255029298
H           1.56604464454375   -0.38178721144020   -3.03222527331735
O           1.42759591985316   -2.74981532325509    1.20019044535432
H           1.65441326863992   -2.68584871165157    2.12938386480941
H           0.47101532015063   -2.57292710219793    1.13685439296079
O          -1.46416385527237   -0.79637256938277   -1.30235658940340
H          -0.63438149127030   -0.62607598619895   -1.77519767424984
H          -1.27275714448127   -1.62353069776672    0.03053061604176
H          -1.69643391337096    0.04692588888608   -0.85125099177011
O           2.12761368605076   -0.44666979457251   -0.03640567558700
H           2.00364914861160   -1.34889966667544    0.32236228932315
H           1.50295439414841   -0.25868850379593   -1.46255101438689
H           1.58708389417391    0.13123811887705    0.53495459602361
N           0.31762046525222    2.27774512529935   -1.13661829761130
H          -0.71224928366129    2.11905342593495   -0.91196364217199
H           0.68016869434338    1.99627061460476   -0.16966141912014
H           0.64014723378240    1.56258334460407   -1.82218427692231
H           0.54355190042577    3.22848238414826   -1.40449232111904
