    26
        -50.45260129  Gyration_radius:  2.49750692398 Dipole_moment: 5.354
 S          -1.66149816977590    1.43754662319697    0.68752202683172
O          -0.55927736547261    0.79404114603288    1.44223857126834
O          -2.18578315877895    0.44383315295018   -0.28338527289771
O          -2.67049937468349    1.98852768718908    1.52419717650761
O          -1.01019210537749    2.58327483880936   -0.14969825667937
H          -0.28542686082275    2.19779750457541   -0.69053664928142
O           0.42519580012773   -2.50576691974152   -0.07688461700876
H           0.96468681347386   -3.29137811113614   -0.16872029085246
O           0.86475171379214    1.56676878777578   -1.75267937965616
H           0.80317852028349    2.03453366458664   -2.58747322988583
O           3.13765018884406    1.04346876127921   -0.32920258196701
H           2.38681891852089    1.27080522947159   -0.90790948353422
H           3.33306120189331    1.82967471317098    0.18327628747081
O          -0.46228694874387   -0.63013957930347   -1.96528125076960
H           0.43343995510011    0.67029727045012   -1.90222567528882
H          -0.11480393898140   -1.36602637608678   -1.43723004880951
H          -1.20630346385354   -0.25113489683417   -1.44430651391370
O           1.69160474259555   -0.66301093783811    1.19439884073364
H           2.34016850184060   -0.16091915926605    0.66026141722860
H           0.96711294182412   -0.03388220644620    1.37306420730411
H           0.99805992680966   -1.82011727376937    0.39465773748025
N          -1.65918421659774   -1.48565582311908    1.27349267213240
H          -1.11016119886248   -0.65958434776185    1.67589584050401
H          -0.98077351081087   -2.13140680707102    0.81715908762692
H          -2.26993318708762   -1.94281244020184    1.94034514440224
H          -2.16960573527860   -0.91873451096311    0.52902423105445
