    26
        -50.46328769  Gyration_radius:  2.42784089311 Dipole_moment: 7.583
 S          -2.00232715478349    0.23530677988876    0.69629597312269
O          -1.55673025085238   -0.82614175207055   -0.24768841710867
O          -0.99625697696693    1.31226335920913    0.65632210103040
O          -3.33082901233350    0.67736391102524    0.45981078633111
O          -1.91448491385968   -0.40556311176159    2.11710948894906
H          -0.97756232840536   -0.66465652338987    2.25648382952698
O           0.64183514966509   -1.03050590025169    2.57751708469166
H           0.80026012297328   -0.87010971198906    3.50880033772321
O           2.01372937065363   -0.78797152566083   -1.20138211301553
H           2.81209830832507   -1.22444992265232   -1.49945981390784
O          -0.62564839815748    2.74686364504368   -1.46790660288254
H          -0.92269104909561    2.34605418240048   -0.61219142240419
H           0.06390236244534    3.37245709083246   -1.23734446126646
O           0.52296491435466   -2.40237922352111    0.17401761131901
H           0.68788482224398   -2.26205257531739    1.11617163383934
H          -0.34319709016718   -1.96754606175998    0.01010860047285
H           1.49440923325527   -1.47278890944798   -0.67704902715463
O           1.55546998321047    0.86101036984500    1.04736690286267
H           1.84414490639309    0.42694135425393    0.23103405213257
H           0.62214132668877    1.14050574072943    0.89555998449928
H           1.09989969942977   -0.29454502922453    2.07637257084297
N          -0.28913651140173    0.22072677246160   -2.20988908844045
H          -0.62601276550817   -0.06229996882709   -3.12329115991906
H           0.68217666919164   -0.10587195659070   -2.03997227264173
H          -0.35748492548204    1.26389449696113   -2.08130418648992
H          -0.89855547181947   -0.22650552018138   -1.42549243211183
