    26
        -50.44612505  Gyration_radius:  2.48590578989 Dipole_moment: 2.146
 S           0.08384225951069    1.49513520552425    1.65732107922600
O          -0.20327919842993    1.25800239083928    0.26194452237457
O          -0.90056019465175    0.97819961264551    2.57418925976240
O           1.44820863481059    1.05260488573626    1.98646490736720
O           0.08945822903372    3.07552405507565    1.84761788326920
H           0.12353677483584    3.17761656129731    2.79397052200817
O           0.62280554812332   -2.13563411009884   -0.01335294509316
H           0.94126557094516   -2.90379610710854    0.46237084895081
O           1.66615543545548    0.83636799031701   -2.23296465955964
H           2.30295740448860    0.60937077783624   -2.91326203891676
O          -2.23785267065517    0.43875110392815   -1.16564265553776
H          -2.58602315097740    1.19237750715542   -1.64442079772101
H          -1.51672146060110    0.79432337326757   -0.59480376568253
O          -0.25864441767099   -0.92843116101128   -2.42599772982474
H           0.01504542912990   -1.53986622905449   -1.72928586085507
H          -1.05987421521374   -0.48893200532283   -2.07566247533667
H           0.87078707069734    0.25139321294417   -2.38213899002764
O           2.26800128138139   -0.16630532019593    0.02345750663302
H           2.03801248325738    0.36524960614699   -0.83242289947527
H           1.95986308279814    0.41423647055020    0.87717706944658
H           1.63232391607983   -0.96684155612246    0.01438284655091
N          -1.53572475482584   -1.36713747533991    1.15566572386343
H          -0.24355716338552   -1.82662802176019    0.46923938189856
H          -2.15218043547678   -1.02870221349597    0.42394516712055
H          -2.05614162838013   -2.02749194093212    1.71989451843042
H          -1.31170385024352   -0.55938658281134    1.74231359111301
