    26
        -50.44612505  Gyration_radius:  2.48581615907 Dipole_moment: 2.144
 S           0.53487021113463    0.80095191689860    2.01518026556820
O           0.71666194233684    0.91317798350593    0.58689673441444
O          -0.74167575839705    1.26078792419158    2.50074405248079
O           0.85408400464505   -0.56141271002309    2.47096694648585
O           1.63378105083157    1.74226284650105    2.67861358883747
H           1.37550670018477    1.76015201347551    3.59521744948082
O          -1.22072788454672   -1.78095090422463   -0.53777199348023
H          -1.78526100814374   -2.50537828698163   -0.26519860524366
O           2.38521037202587   -0.78830107722545   -1.46589188587309
H           2.82911800591951   -1.42109649433401   -2.03367543060082
O          -0.50274478172847    2.07370847921986   -1.41676015749493
H          -0.04685852628098    1.70042822032303   -0.62609002681823
H           0.03610661711898    2.81276045260324   -1.70283935092238
O           1.14607854988693   -1.91322504974124    0.44654645511749
H           1.08364894793266   -1.33363275862197    1.35278170393596
H           0.20074002815481   -1.88622054919973    0.05896645423604
H           1.72675630557896   -1.39426676500796   -0.23290111775687
O           0.07029719110924   -0.30697183461507   -2.59086302309424
H          -0.18671162047705    0.59108165387692   -2.29872312912955
H           1.56078758341300   -0.50139692049347   -1.95081951387779
H          -0.48569696721848   -0.90572798798560   -2.07457411471973
N          -2.30325127344878    0.38523520724949    0.33008800188904
H          -1.65966577209675   -0.91160647858127   -0.17689441705570
H          -2.12875349789747    1.09445386771547   -0.37454488696783
H          -3.29338077773635    0.39438921080847    0.54178146575248
H          -1.79891964234109    0.68079802063444    1.16976453480335
