    26
        -50.44612502  Gyration_radius:  2.48594524343 Dipole_moment: 2.145
 S           2.15720108965049   -0.54043054721389    0.20704982739792
O           2.67913646014155    0.59028527108338    0.93228949349768
O           0.79162605979206   -0.88666141299571    0.52486717088854
O           2.33069045609377   -0.40610961513254   -1.24806645848326
O           3.04344857067694   -1.79353850344282    0.62942796544971
H           3.93312984089719   -1.46290835851540    0.55024245407720
O          -0.94443079035378    1.62427819418348   -1.19008200409879
H          -0.85179944614034    2.39871898448596   -1.74635953290078
O          -1.50482929794295   -2.18845530023328   -1.18744612699003
H          -2.17452359385999   -2.48420699033266   -1.80705576263394
O          -0.97159544457033   -0.26269049910920    2.35542969445409
H          -1.07465493656526   -1.01782372125163    2.93637024612955
H          -0.25943531966664   -0.50938276816534    1.71963466860046
O          -2.59378113054551   -0.23710424473993    0.17745720150158
H          -1.95091165324215   -1.53553759057211   -0.57768378637865
H          -2.13133487753543   -0.22349993388957    1.03988119464979
H          -2.23557648381870    0.51725267879703   -0.30918261132402
O           0.08089252522723   -0.49152516825905   -2.21908051728524
H           1.08497934494092   -0.51058251838770   -1.82919243872370
H          -0.45221117843054   -1.26262672875445   -1.78400632839480
H          -0.32842014160131    0.36180694224012   -1.83276569210297
N           0.31500518926277    2.11441812492639    0.99861861818864
H          -0.21840309163184    1.67277640751753    1.74049783439074
H           1.21657022706941    1.63194054895400    0.96345143000312
H          -0.42685245713071    1.82630377751342   -0.31251510649368
H           0.48608008925579    3.07530296130885    1.26821853660706
