    26
        -50.44612503  Gyration_radius:  2.48604967187 Dipole_moment: 2.147
 S           0.21748890413145   -1.20363084516821   -1.86910389769169
O           1.57241933712128   -0.90568775060995   -2.25942293419090
O          -0.01278538642270   -1.22312782046344   -0.44354309461678
O          -0.76570465911461   -0.33762718749591   -2.53925323966294
O          -0.08578064625278   -2.67726218696102   -2.38905577565380
H           0.23046214799650   -2.65634617197250   -3.28720326345069
O          -0.05694071705802    2.20857092020429    0.26449448132999
H           0.02520529880244    3.08568758579935   -0.11197154301142
O          -2.54941557644499   -0.54585035666621    1.29062522527594
H          -3.32765884163393   -0.21676885805434    1.74437332128986
O           1.43668751312948   -1.21848662947772    1.73532684712218
H           1.38376795171977   -2.09116281440871    2.12782600835980
H           0.93301754335432   -1.27444375680069    0.88944715316817
O          -0.49467231758002    0.52666610670114    2.50841539788634
H          -0.32332353311921    1.26702752335400    1.91118960455565
H          -1.76118218214369   -0.24711112625925    1.82597744191244
H           0.25180759143112   -0.09016913014483    2.36615165289961
O          -1.97214697212159    0.84043866660253   -0.75949494327289
H          -1.50222109830893    0.29479212210028   -1.56115011483940
H          -2.22520141703901    0.17078872327060   -0.01396355688946
H          -1.22116654259034    1.40703977065490   -0.36003740947410
N           2.13913319890944    0.96560368867580   -0.23589988619928
H           1.97709994575584    0.33389482557729   -1.02422163405984
H           2.97749949908657    1.49884081415834   -0.43102859492735
H           0.82919228099915    1.71075378512479    0.05129240453362
H           2.32441867740665    0.37757012227109    0.57023036959453
