    26
        -50.46459355  Gyration_radius:  2.48531610973 Dipole_moment: 3.593
 S          -0.55665567574235    1.75219704663948   -0.58458575354120
O           0.86686263239465    1.51953489241717   -0.70305195134321
O          -1.33366659878039    1.21027549511590   -1.67357354322117
O          -1.03420820876386    1.32616700642347    0.73613766488215
O          -0.79471254986647    3.32094085881346   -0.62613555478833
H          -0.97335881304387    3.44222963080948   -1.55212796906182
O           2.99337263553769    0.68535663953484    0.83463168174116
H           2.55331642791635    1.44791839073852    0.43304527079494
O           0.41281208934667   -2.34128420038141   -0.14319189861780
H           0.29777306013210   -3.29021737240869   -0.08273754106284
O          -3.00860209922667   -0.44590939745208    0.99019852498948
H          -3.85340606592856   -0.02562004643882    0.82252261576353
H          -2.33833960460847    0.26786080335187    0.95711225540463
O          -1.71917712638593   -1.38160508147828   -1.21143647213603
H          -2.31084090727035   -1.25696245272583   -0.44445282183710
H          -1.56619586511810   -0.47485872825484   -1.54694204923533
H          -0.40438015048407   -1.99170575172914   -0.62087955456681
O           2.36578684246389   -0.70001258039771   -1.35133030488875
H           1.77705300441496   -1.42049811918938   -1.08693766225166
H           1.79657696507529    0.08306481574538   -1.42619092374545
H           3.10190338319256    0.07513962661341    0.06972964007364
N           0.74315427438486   -0.37202603308640    1.66847600783635
H           1.71175223231122    0.04037640786726    1.45086009062152
H           0.61547496724468   -1.22621819603386    1.07925581447141
H           0.63115703764609   -0.58536420661145    2.65377234980478
H           0.02654811320553    0.34122057209419    1.35783209390957
