    26
        -50.46459291  Gyration_radius:  2.48528619176 Dipole_moment: 3.594
 S           1.50349496308385    1.16699630455710   -0.31665734836475
O           0.93935607547240    1.65034654706721   -1.55414142805192
O           0.73399702055687    1.51651407749069    0.85816761169446
O           1.78416512736233   -0.27349016031212   -0.33148947174295
O           2.92307718540751    1.86552833430735   -0.18980057995660
H           2.76326474073058    2.66664438335189   -0.67633183955516
O          -0.24139491336684    0.35083027919784    3.15431247635435
H           0.43688267417062    0.93372608649512    2.78467006794192
O          -2.21203281851408   -0.85138261887962   -0.22896992197287
H          -2.96249636443957   -1.36722501048126   -0.52574226792576
O           1.09621790967716   -1.80242627025712   -2.40293215260018
H           1.71573400215518   -1.68094172600467   -3.12394694050236
H           1.44448090869948   -1.27647024407954   -1.65329991622507
O          -0.96833408986360   -0.03669855777796   -2.32564341836958
H          -0.36860739475987    0.70557217490074   -2.10762801449516
H          -0.36736443977199   -0.77994403565085   -2.52629083856346
H          -1.77512923135230   -0.48997492613593   -1.06376967704548
O          -1.96063392386324    1.42181261258038    1.42569930499545
H          -1.07399790425460    0.75007848035776    2.81272712136621
H          -1.10150634710412    1.70322448160506    1.07138306705940
H          -2.26397473238966    0.71846566640617    0.83501028184945
N          -0.00874503492239   -1.40670591812993    1.22223227659503
H           0.76168630509455   -0.99231151250205    0.62778238125561
H          -0.09559096627837   -0.79014121788173    2.09863857033569
H          -0.90098008505822   -1.32964566981534    0.68268204588197
H           0.19843133356060   -2.37238157040063    1.45333863007172
