    26
        -50.46459330  Gyration_radius:  2.48529756392 Dipole_moment: 3.593
 S           0.24408037706896   -0.73264620458888    1.76799125208145
O           1.62339976172796   -1.06577089676778    1.50378214285676
O          -0.03163355477463    0.68809240636539    1.75810553273534
O          -0.70019318777818   -1.44078508502571    0.89575304542110
O          -0.05587367308267   -1.27271337148019    3.23004640674052
H           0.81328930130161   -1.22264233386212    3.61231341514102
O           0.62130934977707    0.90986999676418   -2.11139995309817
H           0.85283251991529    0.98317731785084   -3.03788535117973
O          -1.87524816073860    2.46269842020108    0.74055740145379
H          -1.57463400475993    1.99585700836676    1.53307583542437
O           0.14885903887438   -3.00300807339609   -1.08944302797485
H           0.45278116633431   -3.84293649862009   -0.74218012409560
H          -0.21737400574500   -2.50959032403489   -0.32639198002123
O           2.00643633131300   -1.01976495781950   -1.12900780746407
H           2.02552636114395   -0.97375009724223   -0.15141254568132
H           1.45663487682332   -1.80365265765360   -1.32163288449114
H           1.21931898730745    0.19157037988278   -1.73100792595647
O           0.68232464898844    2.72693676680843    0.04800523756897
H           0.81513506441074    2.25134160858001   -0.78372027698234
H          -1.04876351125445    2.89037840732500    0.41914268772383
H           0.71977686621299    2.04834196269913    0.74153330119293
N          -1.65588620754558    0.34101583632713   -0.78477470600409
H          -2.46388795641624    0.02102858426902   -1.30784969768835
H          -0.85255786238121    0.55105483684839   -1.42012362442749
H          -1.86802729978323    1.22617139443974   -0.21277210785675
H          -1.33762524695907   -0.40027441622934   -0.10070423535771
