    26
        -50.46495511  Gyration_radius:  2.44096605596 Dipole_moment: 5.138
 S           1.65846576243106    0.74277551254471    0.16903147884211
O           0.51482599404234    1.11345959959439    1.02034931445283
O           1.15497545784688    0.02842604533082   -1.02083023684952
O           2.49124042743587    1.85863242102826   -0.16613445917105
O           2.50736040560602   -0.28389153193424    0.97738807272811
H           1.92312182322403   -1.04680032763221    1.20786330471202
O           0.95738576601490   -2.39218157926140    1.44684716443390
H           1.53815107982530   -3.14895316018316    1.54123472789987
O          -2.52523625839045   -0.89018897184585   -0.23275870664484
H          -3.39434852891639   -1.25418471858958   -0.06192015067291
O           0.61608648032996    3.24399431518411   -1.50951655307606
H           1.32142994460726    2.76807376511850   -1.02665094774717
H           1.03006935130897    4.05184741388155   -1.81844519749788
O          -1.17554315659688   -0.67254977241805    1.99448565963560
H          -0.56033367370044    0.06180912759260    1.77955151184140
H          -2.07207596830934   -0.82116832284067    0.65699386134762
H          -0.59661144888252   -1.43422980571016    2.12465512557656
O          -0.14187279798867   -2.27655382260959   -0.90823577860472
H          -1.04680481074764   -1.93932546885346   -0.82287695841720
H           0.41022130111639   -1.49259083719389   -1.11383932469870
H           0.52696536839239   -2.47260304066548    0.54654626457464
N          -1.08651855338777    1.26766560718517   -0.98439701053276
H          -1.19284868577515    2.13974413189966   -1.49937526454621
H          -1.91068720577969    0.64920422898010   -0.92388079077668
H          -0.24783789587668    0.73441312951600   -1.35357271962172
H          -0.69958020782221    1.46517604188149   -0.02251239718852
