    26
        -50.45071933  Gyration_radius:  2.45455389399 Dipole_moment: 5.480
 S           0.83898727510277    0.34518861824068    1.73929786418221
O           0.12960238823774   -0.94009091875435    1.64397794067171
O           2.11708862895010    0.28629966368209    1.06845784041388
O          -0.00849182157733    1.44530732765619    1.34209771986667
O           1.15115213075700    0.54315875938288    3.27868031127771
H           1.97583431530876    0.07656559953222    3.35884796945895
O          -2.05491420500139   -0.33520072158660   -1.34711242199942
H          -2.82726572712426   -0.70020086990493   -1.78097073741316
O           1.92660810420202   -1.47053932717018   -1.90791528206487
H           2.67725656736442   -1.85483698618768   -1.45035419603786
O          -0.26119091353364    1.90086617144473   -1.32311964840125
H          -0.92581245819226    1.23876968812087   -1.54802344597208
H          -0.20787018301940    1.90921221788006   -0.35127205107260
O           2.26216427639537    1.01700378701615   -1.49980166209012
H           1.40102558128133    1.47210020132590   -1.61705359216793
H           2.35552159856372    0.90365706120134   -0.53384585480391
H           2.07273945401629   -0.45941724196496   -1.86127795957351
O          -0.16150065152170   -1.90205886157231   -0.61890713792526
H          -0.00687622793233   -1.53688150699798    0.35673432621828
H          -0.89826412736741   -1.31716654225057   -1.00647411694141
H           0.72893202786522   -1.73484950135715   -1.18576017147741
N          -2.52362040603161    0.23617350229832    1.14065391973030
H          -2.32833163472375   -0.08207985797142   -0.39455367705405
H          -2.45246196127094   -0.59686123723259    1.71261526417162
H          -1.67019258052719    0.77320669545422    1.31672050699122
H          -3.31011945021683    0.78267425971954    1.46835829200871
