    26
        -50.45071949  Gyration_radius:  2.45460885303 Dipole_moment: 5.471
 S          -1.48630126561822    0.56959238265269    1.14672376516439
O          -2.38132022067309   -0.02893611231131    0.18353496690592
O          -0.59965439749867   -0.43963105472215    1.74644529685863
O          -0.73840480972920    1.70579498679350    0.66107275431854
O          -2.39384853437490    1.09424385132436    2.33309221772517
H          -3.10275105973376    0.46074264523317    2.31426508931143
O           2.44044619241091   -0.10890709175957   -0.43083096849035
H           3.36753520392477   -0.35040390758645   -0.44245518312157
O          -0.78300050159195   -2.42332128569383   -1.74024318761492
H          -1.57986557053362   -2.85814328152122   -1.42990792515862
O           0.44165904792971    1.44821024994167   -1.77125376290101
H           1.23870440145988    0.96378739741547   -1.52479693855510
H           0.01864773420511    1.71303174931653   -0.93562159670571
O          -1.64336618530015   -0.11885436339825   -2.38505439730556
H          -2.08133419762619    0.02136422900368   -1.52297085966130
H          -0.88811194577450    0.50723808269671   -2.38753222529538
H          -1.09556041478803   -1.52252046665239   -2.11030960865004
O           0.68929104829972   -1.87382304411094    0.19327121236550
H           0.11490914760866   -1.30904236601189    0.87190429615778
H           0.07069643043385   -2.12853155281302   -0.64010949154999
H           1.41427409641690   -1.23867833498067   -0.13248513506165
N           1.81864491994562    1.24008600682947    1.69724916474866
H           2.28273238334476    0.46560579107028    0.40047432089716
H           1.66563244164571    0.61338686553389    2.47821281133453
H           2.32057725087702    2.05243269376222    2.03301141656093
H           0.88976882474493    1.54527591998284    1.39431395773050
