    26
        -50.45071932  Gyration_radius:  2.45470325234 Dipole_moment: 5.474
 S           1.20251750681858    1.34534795139398    0.77036015256162
O           0.92234428727084    2.17052574761764   -0.38180816191051
O          -0.01803318546700    1.09244641385156    1.55189777055174
O           1.90894946112564    0.11829351319088    0.48505888593607
O           2.14005578720213    2.20221965559453    1.71540086887230
H           1.83469591002907    3.08259791602885    1.52582211830547
O          -1.09141228139192   -2.22226119352269    0.15393323450358
H          -1.67667822391683   -2.95278957735739    0.35823741412259
O          -2.06387328179214    1.28512370766960   -1.89853950019378
H          -2.12472711326194    2.23623804700395   -1.78909536256321
O           1.00172749103432   -1.36042479337151   -1.60434841323939
H           1.48181599650435   -0.90742697330901   -0.88907898371513
H           0.26729260866682   -1.82180264143490   -1.18194040155579
O           0.32919169482792    0.98799519689614   -2.70547596463585
H           0.60731986571676    0.06476158646552   -2.52464686929798
H          -1.14764896847890    1.12188269317416   -2.32295371145092
H           0.70314652131854    1.51033010652774   -1.96924274977673
O          -1.96984139325915    0.17941321415623    0.33233793701493
H          -1.16920375060378    0.61312377993199    0.86189452950090
H          -2.03297117029519    0.64911881584827   -0.62546753375530
H          -1.69945372825765   -0.79134671489178    0.19215914593705
N           0.57015106942097   -1.74287050725093    2.08894450312787
H          -0.43235307007421   -2.12986175407434    0.93051868290395
H           1.18720588140505   -1.10497423978486    1.57895506000234
H           0.12277888139088   -1.18463207766780    2.80603856828040
H           1.14700318406770   -2.44102789268295    2.54103877047577
