    26
        -50.45450935  Gyration_radius:  2.45165230547 Dipole_moment: 5.296
 S           0.56947961026106    1.46499253365328    1.37505132060704
O           1.66125007758408    0.38852901032044    1.25467738168386
O          -0.60187565903190    1.04569231835319    0.62696032120945
O           0.35774222703671    1.72781602698483    2.75235519479568
O           1.16471188423339    2.69553718327479    0.65678518645447
H           0.72533521693941    2.78458367547411   -0.24333658825524
O          -0.30970518715608   -2.59046982843134    0.15396363557639
H          -0.12855132765850   -3.51309667159998    0.33761454967012
O           0.06890207269742    0.30277034341223   -2.75103860091228
H          -0.07535001616073    0.11688824146934   -3.67954139523332
O          -0.18722173995502    2.72239771242678   -1.53532039663570
H          -1.00263087219672    2.48907727376727   -1.07920263374053
H           0.04347446368038    1.93453921062895   -2.06755824305384
O          -1.76576339446699   -0.62051339522489   -1.14929005601661
H          -1.45798514838390   -1.47926526988319   -0.82240408248768
H          -1.52579534699209    0.00579494518609   -0.44407306881041
H          -0.71359978237572   -0.06748588828454   -2.25015186779817
O           1.60439146093492   -0.96165924143007   -0.87777332742198
H           1.67966638675370   -0.11185565290244    0.35608631158371
H           0.95224476262487   -1.63636548804020   -0.59512789214839
H           1.19161684803964   -0.46927378829089   -1.61080879764683
N          -0.47275303988180   -1.23234087069410    2.44332504897944
H          -0.39046461160694   -2.13080084214232    1.03942979421713
H           0.46540952657327   -1.04656875242888    2.77957599833255
H          -0.80986651407123   -0.34458648524079    2.08433025674617
H          -1.04266189742199   -1.47433630035554    3.24547194030740
