    26
        -50.46254260  Gyration_radius:  2.39847272403 Dipole_moment: 9.384
 S          -0.25424590158133   -0.86004782744674    1.70259596147856
O           0.92888616383460   -0.20768092985696    1.14617646616785
O          -1.20394052628089   -1.18484665687387    0.60376399774354
O           0.01362681928768   -1.97777015429443    2.54106120968770
O          -0.98883924543564    0.25762440612975    2.53859165181238
H          -0.94035783417845    1.06646915303851    1.99641905614552
O           0.48646083813933    0.34214490766799   -2.39997353178977
H           0.67331697756267    0.23572560722779   -3.33345266364152
O          -0.88448325144792    2.47833969085727    0.92602460481936
H          -0.84403742293368    3.26840581412133    1.46671565266377
O           2.09563544450708   -2.55748153601099    0.68577971371951
H           1.61598417743595   -3.03540541658360    1.36982392299062
H           1.93292159313738   -1.62403165058583    0.90515079460332
O           0.42333169031428   -2.02369058584178   -1.36043232259659
H           0.57260360720104   -0.58002406832445   -1.99762655405566
H           1.19520960318017   -2.33485301026897   -0.84488225893312
H          -0.26133269396109   -1.88628255169086   -0.67927018286375
O           1.35239113050374    1.95321378659197   -0.25884776279562
H           1.22777501416113    1.58140009337373   -1.14400683475380
H           0.01881152142658    2.38314926231989    0.49074922545935
H           1.42793458738762    1.16187347791813    0.31595278578766
N          -1.74276411672832    0.73245273180268   -0.95852926172551
H          -1.67551034273666    1.58491481412406   -0.38523480146586
H          -0.95875663141755    0.69649260934660   -1.65213276143444
H          -1.56276453169844   -0.11749586770444   -0.26747580152314
H          -2.64785664967785    0.64740391096191   -1.40694029550028
