    26
        -50.46254256  Gyration_radius:  2.39846267159 Dipole_moment: 9.376
 S          -1.70532278764188   -0.42638528898466   -0.78287137339916
O          -1.65700657882921    0.63915979616883    0.25492654941065
O          -0.46893688811621   -1.20392686786665   -0.73986639609581
O          -2.90110321479623   -1.19472925202478   -0.72147973899603
O          -1.65510454426337    0.35598729282292   -2.15137353798692
H          -0.73718622380434    0.67250766499853   -2.23953810138593
O           1.82076629982938    0.23974992666608    1.65535068477374
H           2.35414000624984    0.26895507789774    2.45052684156618
O           0.92704595441846    1.28019076364918   -2.29871192096512
H           1.20001736516385    1.32778619875790   -3.21599035637344
O          -1.46620691865095   -2.82776369059122    1.12131807081518
H          -0.98093795651399   -2.46919579077844    0.35850475645803
H          -2.38898657996069   -2.68988858597386    0.88536619041793
O          -0.52055680310381   -0.61629366587116    2.33892244003377
H          -1.07088319334697   -0.11243349354041    1.71055033232290
H          -0.75648780220713   -1.54744271999976    2.14967859463205
H           0.95101216749046   -0.19607926447504    1.92606790487254
O           2.06887777101614   -0.64610680970628   -1.00638124923325
H           1.44744631646944    0.52408679127406   -1.88424050919118
H           2.26707366327681   -0.41445770025511   -0.08752511676176
H           1.19051565739634   -1.07940415698354   -0.95136399492896
N           0.43841203676959    2.05920278841508    0.24923842877428
H           0.30016874288843    2.98659603490311    0.63435465502455
H           0.74837100891068    2.09190173555177   -0.73190621363037
H           1.10629885011790    1.49338404627425    0.82447783105306
H          -0.51142634876276    1.48459915967026    0.25196522879339
