    26
        -50.46254262  Gyration_radius:  2.39833550675 Dipole_moment: 9.376
 S          -0.53375031492255    1.78624360785865    0.47670291840235
O          -0.72878062187631    1.04584372094819   -0.76772572908433
O           0.54589915349842    1.14173862050572    1.27274525272454
O          -0.33428066579408    3.18603914795225    0.31872298062562
O          -1.84438557089239    1.53538199731484    1.31744204000848
H          -2.05482078408104    0.59076745351265    1.19954729340660
O          -2.33413659199657   -1.14905619046400    1.00473372345141
H          -3.27813204469280   -1.31017026646858    1.03791301305730
O           1.36560344163471   -1.89929706749642   -0.79964839235220
H           2.06895534438463   -2.47133130262166   -1.10904335681074
O           1.16367109839480    2.46308930037292   -1.99453344944715
H           0.35801367580925    1.95465168171077   -1.79888676325223
H           1.08107110348184    3.23953197512239   -1.43184102434719
O          -1.34955853613316   -1.41883230041544   -1.37074520875057
H          -2.05016525367992   -1.30824397535086    0.05167536354922
H          -1.18576428863235   -0.45168961088489   -1.37146526870236
H          -0.46001070963727   -1.80090702580301   -1.36509505556520
O           2.35053628162046    0.48246236973888   -0.60302699913419
H           1.84591946730832    0.80711021042165    0.16614385138953
H           1.74107631097213   -0.96247941527075   -0.83310766206218
H           2.14481324765900    1.13751229751978   -1.30094233392012
N           0.29992957458958   -1.35601522117572    1.60188663828604
H           0.41566472651001   -0.25549561857671    1.51387848650202
H           0.75543898304593   -1.70086273994537    2.43918250606408
H          -0.71369212441585   -1.53561249685163    1.61304450440771
H           0.73088510784461   -1.75037915165529    0.73244266155239
