    26
        -50.46074950  Gyration_radius:  2.48784648196 Dipole_moment: 3.717
 S           0.28442974682390    1.25094676324805    1.61941345722928
O          -0.71945898454953    1.96002502942151    0.84206503387943
O          -0.30103313425356    0.20545316947646    2.45401916397731
O           1.39262274625406    0.75075843056722    0.84330043871472
O           0.89318136767129    2.32918203899414    2.62227378915536
H           0.14188171807746    2.66178248042989    3.10561945515115
O          -2.00500592754297   -2.34266099722922    0.08625154226695
H          -2.78396279142709   -2.30024979053373    0.64287854899868
O           0.42058499054674    0.61256622853234   -2.60607430901163
H           0.58822417580959    0.83837266890085   -3.52171676458437
O           1.16278887651172   -1.70139922015479   -1.38052914215357
H           1.06849028866279   -0.80538350532699   -1.75674149138114
H           0.43214006289072   -2.20847535880377   -1.74400621290612
O          -1.67230111562168    0.09526475897334   -0.83762137289961
H          -1.44240313956693    0.77856606778252   -0.17872089790609
H          -1.05327123607131    0.23254097540595   -1.57131971284708
H          -1.93245634865644   -1.44392750890431   -0.33065773032329
O           1.11893745394759    2.57862619152876   -1.02572805997291
H           0.28610978368015    2.74333241142284   -0.55634172244416
H           1.58289669474487    1.98394894119530   -0.40673822829967
H           0.71502858112461    1.39816985715536   -2.06583914592307
N           0.38304651403211   -1.94233315231302    1.16906755773174
H           0.19615992393726   -1.06834486658605    1.75038413948849
H          -0.55844248426916   -2.29455401136525    0.85192102328739
H           0.90163169182521   -1.67917172647144    0.29344183843476
H           0.90018053540675   -2.63303588536175    1.70139883235062
