    26
        -50.45450917  Gyration_radius:  2.45205820084 Dipole_moment: 5.296
 S          -0.12480626120238    1.30548130193307    1.62679295694857
O           0.86854323965132    0.75791097173812    0.72082901034744
O          -1.45169889317684    0.54997923753858    1.44218339507667
O           0.21430895430462    1.27388640359210    3.00332101971179
O          -0.43579867801908    2.74474823584512    1.16185444276637
H          -0.03950911667562    2.87827802619551    0.24744178351089
O          -0.31606889152616   -2.58163398073968   -0.26783002839128
H          -0.70460883364261   -3.45546787322426   -0.21094372444228
O          -0.13617347381249    0.76623158208609   -2.65680597869977
H          -0.08874775456342    0.71127532250167   -3.61189196721939
O           0.75817785189451    2.82360499901721   -1.11923309438145
H           1.51780937896295    2.33806075281857   -0.78102318788256
H           0.31656113373425    2.20954495170178   -1.73985676680786
O          -1.83095599567665   -0.40661853808120   -0.86316597199745
H          -1.34688952605515   -1.25055993439812   -0.74526596755842
H          -1.63508676724069    0.22165299525657    0.48463798250634
H          -1.35095462533433    0.09307145525917   -1.54873444050646
O           1.50292559016874   -0.80766687688428   -1.38414804647845
H           1.45757722472270   -0.27052515965433   -0.57381483166097
H           1.01488281686140   -1.61539449320291   -1.16420654573494
H           0.55908621991729    0.14791151104814   -2.28983532252867
N           0.28140391441079   -1.70002225920058    2.17695075988322
H          -0.08294929269799   -2.30831630774834    0.66640458915225
H           0.81391700268567   -2.19710509191127    2.88129984000279
H           0.80562091825777   -0.86710812786688    1.92780456711028
H          -0.56656613595427   -1.36121912361716    2.61723554727033
