    26
        -50.44300236  Gyration_radius:  2.54190211904 Dipole_moment: 2.842
 S          -1.80779825756861   -0.13500475057166    1.51963600084457
O          -1.93736718424997    0.64385285605181    0.30155354066803
O          -1.23235412040363   -1.46074814740307    1.21520731294064
O          -1.12134871729652    0.53132980088910    2.58883416569539
O          -3.28353586438898   -0.43624076849591    2.01143479722921
H          -3.71417800776513   -0.73245295381711    1.21525880812981
O           0.55860558381383   -2.41616379669393   -1.59897594972986
H           0.00799287940844   -3.19806106965711   -1.53212524344594
O           2.11469406087586    0.71850282723422    0.30135630468119
H           2.88696555834079    0.91938460911565    0.83179303378708
O           1.40075269154249    0.92480225465794   -2.38119982535020
H           1.86534710070792    0.23959591253791   -2.86567691064444
H           1.74778748916410    0.90635332492145   -1.47472409158710
O           1.15524939449591   -1.62634767443428    0.71804442483417
H           1.02571639573604   -2.01516942523045   -0.23957470631162
H           1.53697585009960   -0.68934459839402    0.59368794561758
H           0.12020635847976   -1.53534246523867    1.04182254204853
O          -0.97249859613448   -0.37483675690936   -1.95545641116134
H          -1.38122418898957   -0.02479954613626   -1.13559752613403
H          -0.29776514285527    0.27969231707246   -2.21521271370088
H          -0.07338874698786   -1.65165486002514   -1.79522149984236
N           0.24751378294947    2.31803761484488    0.99027526348277
H           0.42062778902958    3.26770165233630    1.29445141100531
H          -0.20957737957594    1.80449691545554    1.74890248047704
H          -0.43277805426381    2.33930438927221    0.23842470261856
H           1.37537930582352    1.40311233861548    0.58308212384758
