    26
        -50.46975365  Gyration_radius:  2.44541882019 Dipole_moment: 3.738
 S           0.88802854410639    1.11512728138891    1.25630484259447
O          -0.24661936082598    0.31632214450891    1.72789009911574
O           2.16283731750315    0.51280780334030    1.55931462683399
O           0.72486964899103    1.46776170716689   -0.14056622960766
O           0.82805480429982    2.46082838539185    2.09498891666202
H           1.73536829235592    2.53137636389892    2.36996250461713
O           2.36968778816601   -1.70248443097731    0.07793969643291
H           2.49008254184237   -0.95087996035378    0.69427764034516
O          -1.15668323864310   -1.19165142805330   -2.00230418012901
H          -1.84317322004836   -1.51828650373756   -2.58433052413767
O          -2.64250760373340    1.34268783046048    1.19251307848342
H          -2.69222478309281    2.21094287427108    1.59538847431688
H          -1.79179365182890    0.95611727818850    1.48510442517918
O          -1.66284660356259    1.25092173118364   -1.33534846929207
H          -2.23379962796882    1.28532491232589   -0.54373057659329
H          -0.77591226412216    1.48779021439970   -1.00196118546031
H          -1.39711956332207   -0.23588823030421   -1.79281588241682
O           1.58878791362890   -0.28940663725047   -2.02499015030476
H           1.38235964336988    0.47451904306121   -1.45782033698383
H           2.32803641403019   -1.28308396053726   -0.81312867964329
H           0.73339848850208   -0.63616298862228   -2.30916325955442
N          -0.18079336928707   -1.94789917799556    0.39373076491189
H           0.89926841359572   -2.00810418409063    0.26263273767113
H          -0.62530924258490   -1.78022004650119   -0.53722147807528
H          -0.55875481527864   -2.77524670687152    0.84162697192495
H          -0.32324246609573   -1.09321329428439    0.99170615310869
