    26
        -50.46975373  Gyration_radius:  2.44537545892 Dipole_moment: 3.735
 S           0.20406962431570    1.52728590017051    1.11333830397761
O          -0.59079993823912    1.32256176502380    2.29897398775825
O           1.32936186155690    0.59387150166689    1.01242539564017
O          -0.56800250738225    1.53810969968480   -0.11392048285686
O           0.86484267936267    2.96144880646458    1.26986071805791
H           0.35926699895215    3.30472189149209    1.99806717637346
O          -0.49329377381955   -1.81530735344397   -1.79775161769006
H          -0.37043777850119   -2.40716047048181   -2.54024120472677
O          -1.82330313134786   -1.03398442826034    2.02930897165586
H          -1.47459264380903   -0.16597026167419    2.31953655348211
O           2.84346486627782    0.88293639905136   -1.15646726057127
H           3.19022760051843    1.77645847337887   -1.16195851161113
H           2.37180603356066    0.78035141046935   -0.30453891919288
O           0.44671857383558    0.51949835337541   -2.37400743568463
H           1.39686503610077    0.57583642558872   -2.15526040274930
H          -0.12736977693077   -0.92208933535875   -2.08678653809214
H           0.00610807498735    1.02372150940850   -1.66300583245932
O          -2.53788500499972   -0.30862320058476   -0.41840509700698
H          -1.97360421081977    0.48312891244150   -0.36733327398105
H          -2.09463420674841   -0.89985864092845   -1.04018685591662
H          -2.35324623064572   -0.82750462832323    1.22418295328689
N           0.29705156898021   -1.81243885632230    0.77937697275569
H          -0.60754493921800   -1.63829636967213    1.36148591341593
H           0.03319470973943   -1.94919472772338   -0.22255917044122
H           0.83745532882211   -0.91284901876282    0.86386696326292
H           0.83428120545991   -2.59665376667226    1.13199871331528
