    26
        -50.46975380  Gyration_radius:  2.44528323 Dipole_moment: 3.727
 S           0.51213556706427    1.34783334245076   -1.23797316704343
O           1.91101878534579    1.16727719588272   -1.53793321330093
O          -0.32299965208661    0.24687764285626   -1.72599185436722
O           0.24427181857382    1.61696772894362    0.16144217650560
O           0.04668171591540    2.62088504317369   -2.06286250813247
H           0.88987650414036    2.97487281926985   -2.32246677573905
O          -0.74761460742042   -1.51187090177088    1.98088975914059
H          -1.30457577254748   -2.03826516498187    2.55479911664916
O           2.77475074622328   -0.89860461366913   -0.07816008775273
H           2.66315531842643   -0.13838935880682   -0.68554822313109
O          -2.92002815668223    0.48842089019841   -1.19964249830438
H          -1.99065200970108    0.38301293853399   -1.48931192742573
H          -3.23040316417424    1.30441201183581   -1.59517543087801
O          -1.96926122836511    0.66912357421562    1.33454201677187
H          -2.52036624818120    0.53764660128889    0.53905389287414
H          -1.26615731127775   -0.67181439863720    1.77917525870767
H          -1.19496574405186    1.16844455796389    1.01034542696702
O           1.59288145001200    0.18223662381495    2.03454167607657
H           2.60385944598417   -0.52314186412174    0.81710984445935
H           1.16634106002021    0.85434246942403    1.47403701089751
H           0.88236554376361   -0.41199792442828    2.30796226104887
N           0.42217330708018   -1.90644664922752   -0.41535932329469
H          -0.05608901850672   -1.89369822270239    0.51377193030807
H           0.02878098196280   -1.12822039548277   -1.00533867291278
H           1.46869909658555   -1.63606108419232   -0.27679763867691
H           0.31612160192447   -2.80384285181572   -0.87510902944921
