    26
        -50.46047682  Gyration_radius:  2.51668852574 Dipole_moment: 5.355
 S          -1.60153586355388   -1.50761149917029    0.06195188472405
O          -2.06287764909296   -0.79757823025088    1.25556627517334
O          -2.23847331829508   -1.05835876761321   -1.14942749787860
O          -0.14801187832410   -1.51956007802259    0.01615616200738
O          -2.04025100823990   -3.02420034361963    0.24858113709849
H          -2.88296617155730   -3.02640706851957   -0.19273512192742
O           1.07893514784402    0.71051802015891   -3.18164234227407
H           1.68479154189835    1.31385414297561   -3.61306169495421
O           0.33159421000578    2.20851137384606    0.31513323843456
H           0.20479951566089    3.15787384087955    0.31063263727691
O           1.79403494034665   -1.37899496232707    1.82236507483695
H           2.43414933513047   -0.99352806934685    1.21055088436415
H           1.12027143279076   -1.77709391124886    1.23612456320582
O          -1.09923442904729    1.29733723536528   -1.60629655174928
H          -0.27534771760522    1.85114220645759   -0.41455072309384
H          -0.45932190995904    1.09734740794906   -2.31581428172696
H          -1.59264125578779    0.46402171936011   -1.46204953356660
O           1.91346677339226    0.08080799762935   -0.66910100557641
H           1.53375374387527    0.37691674714111   -2.38134957681023
H           1.58161443804837    0.91768992735457   -0.31495796063514
H           1.17457458814854   -0.54915374334566   -0.56390597334666
N          -0.08162964550793    0.44827943157609    2.30620267404578
H          -0.24679561133962    0.78274444940478    3.24884600896479
H           0.73151092615701   -0.22646639031373    2.26421065645206
H          -0.94482631577206   -0.08248118991409    1.92911810174296
H           0.09041618075815    1.23438977361686    1.63945297522889
