    26
        -50.46162474  Gyration_radius:  2.55213191774 Dipole_moment: 4.679
 S          -2.11826245218197    0.09655248829391    0.77394844265833
O          -1.08433593530215    0.66176801574594    1.64507962229566
O          -2.25868219822860    0.85569880680732   -0.45659445052660
O          -1.91772405136071   -1.32066677615143    0.58359228614672
O          -3.49424427785524    0.25967930396122    1.54878499235381
H          -3.70721519886302    1.18593981513712    1.47491133383856
O           0.82128224429007   -1.32558201884008   -1.53712728472846
H           1.17438093232402   -2.08112376360713   -2.00935457270558
O           3.14122668866883    0.33496838558848    1.17660925729622
H           4.03466430335689    0.03010259811533    1.01552488850894
O          -0.09231712272885    2.42287677311526   -0.22663155186933
H          -0.07318699664079    2.27068470497841    0.72460453151421
H          -0.90130482622196    1.96204453855406   -0.51367462683585
O          -1.72204894814064   -1.24845846887911   -2.03155974405361
H          -1.93792975371913   -1.57300138168734   -1.13482149825714
H          -1.99537502225003   -0.32092141978454   -1.97810928051460
H          -0.14208053337843   -1.25968360074200   -1.81081937954791
O           2.11549137085648    1.15106450051641   -1.08242304509921
H           1.70531443736234    0.35122869818679   -1.44022681032568
H           1.36710805314407    1.74503734676992   -0.85481373989856
H           2.83889932232651    0.77127493208169    0.33027936009136
N           0.85897353023282   -1.01082361175743    1.17178880198853
H           0.77961038762558   -1.22168800558757    0.15086714781908
H           1.79948975994617   -0.56275784054862    1.34075208889199
H           0.08791175701620   -0.31839653250339    1.42338594043134
H           0.72035451977685   -1.85581750767410    1.71602727060259
