    26
        -50.46162482  Gyration_radius:  2.5522793754 Dipole_moment: 4.678
 S          -2.17227899498994   -0.57627217392744    0.21536980546716
O          -1.46838455165624   -0.22876647033665    1.45273200629352
O          -2.29704750434470    0.56719375613810   -0.67183486030230
O          -1.59485470401386   -1.74931993029549   -0.39744514084752
O          -3.65195956721238   -0.96707025093371    0.63734209164169
H          -4.07561999463848   -0.13712684344995    0.83847169013141
O           2.72219805382184    0.37845595310182    1.95273684505929
H           3.67747460021337    0.31818571189402    1.92176468489053
O           1.36587718535873   -0.45810050923415   -1.64888568502905
H           1.96853066901702   -0.89698377745910   -2.25106984452079
O          -0.65689631739091    2.26387597665805    0.60624982429677
H          -1.26774231525422    1.82172646715607   -0.01064631446045
H          -0.75562086386107    1.75805789275210    1.42036426807813
O          -1.00042350074349   -0.62785778267203   -2.69341963475156
H          -1.27141466576729   -1.30865655473180   -2.04596232013330
H          -1.50245229401678    0.14354741290484   -2.39218019508729
H           0.47446205959535   -0.45544900452405   -2.11005108940850
O           1.90870924720064    1.82451591592319   -0.06460972729092
H           1.00866195138694    2.14548442955735    0.16237054411098
H           2.46303441956905    1.05221864455239    1.26223993530647
H           1.77593525988976    1.17092223872461   -0.76546786807911
N           0.88170719499462   -1.22573938167158    0.92306951532630
H          -0.06845906724516   -0.82901063404589    1.20091344472908
H           1.02516552273324   -1.03088101854657   -0.09405616931102
H           1.63949021140007   -0.72651641118252    1.46175224450548
H           0.87190794593654   -2.22643362629773    1.09025192942035
