    26
        -50.46162475  Gyration_radius:  2.55229372357 Dipole_moment: 4.678
 S          -0.25480580796510    2.19230883347124    0.47586332490835
O           0.93496666638959    1.54278756651948    1.03249571098866
O          -0.20806422808241    2.24808534912427   -0.97498253113403
O          -1.46215849999967    1.61121333669862    1.01408378068898
O          -0.21591793541713    3.69923796516033    0.97379023369795
H           0.45867387342812    4.11405615776075    0.44313211148435
O          -1.52780212648899   -1.43496461006876   -0.63371244565992
H          -2.25697475808421   -2.05662576229168   -0.65124770031247
O           1.80752680035199   -2.63067120839617    1.08520384456546
H           1.76770607475900   -3.58476182984102    1.15767614981510
O           1.89850530282778    0.63648437526610   -1.38408011759079
H           1.12698584332063    1.22562159560672   -1.46682945768034
H           2.19863643482143    0.78572329748934   -0.48076327937866
O          -2.49521765202972    0.88028181944954   -1.28392414873198
H          -1.78247685759720    1.37930588162788   -1.70911653585235
H          -1.90165838068674   -0.56755138147606   -0.97297608164494
H          -2.43900208825244    1.19763246666558   -0.36071476597091
O           1.16207874429860   -1.94854089095547   -1.35213746773858
H           0.20241587003199   -1.83596159642057   -1.30314069365784
H           1.52061974348540   -1.04572555728647   -1.49695124171306
H           1.70138383545354   -2.42035026700660    0.11441888663302
N          -0.05318950767879   -0.80849059347043    1.57347053992016
H          -0.70701234901536   -1.00583261720678    0.78184922187464
H           0.69814091580103   -1.54958073801314    1.56941840908883
H           0.39117783611038    0.14540334079545    1.40026025275395
H          -0.56453776960364   -0.76908493315774    2.44891400071114
