    26
        -50.47391691  Gyration_radius:  2.44046124742 Dipole_moment: 2.098
 S           1.38748018668429    1.07457404066791   -0.80667007948090
O           1.02280482636036    1.07111929637940   -2.20502117923763
O           0.39958454046961    1.70070288170372    0.06055328521208
O           1.75104280998171   -0.24296861602921   -0.30635799919804
O           2.68691292670985    1.97361766508737   -0.71106243777057
H           2.95964920834550    1.96426894661974   -1.62113563848174
O           1.87167978824908   -1.37333594479019    2.08791412609218
H           2.03702304735505   -0.97300804824817    1.20865358975621
O          -2.20224646099746    1.08669744772904   -0.58309544098779
H          -1.34110656642435    1.49015414214391   -0.38567848507978
O          -2.10835195621957   -0.85631649375317    1.23221817939239
H          -1.56491709801403   -1.44714163514224    0.66271412666337
H          -2.39109311942345   -0.13817858104369    0.61806876536844
O          -1.11172052185891   -0.37483991130316   -2.67843226802320
H          -1.28605047522287   -0.39590316140763   -3.62048814319400
H          -2.06260733635340    0.58832873248621   -1.40365599677212
H          -0.29492705160900    0.16509133179108   -2.55898118819104
O          -0.35749525382923   -1.92029414607844   -0.48867960851715
H           0.45594017968547   -1.38644846463904   -0.43178055963732
H           1.55142329499443   -2.26036974150390    1.90564860820572
H          -0.75782469568488   -1.65911631803753   -1.33051516784314
N          -0.12523472050667    0.39599001526602    2.30491657585416
H           0.13225671490052    1.01170563420536    1.49295630325236
H           0.65210377553033   -0.29692942123456    2.42859559113895
H          -0.28310579851650    0.94388015249883    3.14262937321821
H          -1.02122024459244   -0.14127979345302    1.98668564825117
