    26
        -50.47398736  Gyration_radius:  2.43829109908 Dipole_moment: 2.202
 S          -0.69649687040141    1.70383506169880    0.55479284106951
O           0.12021753862802    2.63494973887712   -0.18848077244490
O          -1.52691734983008    0.86964273579886   -0.31213686910547
O           0.03437366218591    0.89048263830099    1.50703406303770
O          -1.69483709501295    2.58909577586567    1.40538822424374
H          -1.76968216198298    3.34820212134492    0.83876826380603
O          -0.43647354141841   -1.38290472053560    2.78908038679603
H          -0.29449374189004   -0.45143597518259    2.52181726161294
O          -0.09156557863384   -0.02405208028412   -2.47421253747465
H          -0.70230379757146    0.37309985678436   -1.83110415293292
O           0.45393448283893   -2.26303226679913   -1.14438324062642
H           0.27227378706374   -1.58851032333175   -1.84042767113473
H           1.14827430220254   -1.84132742143270   -0.58796904950059
O           1.95195204794957   -0.62408562007812    0.34385830298130
H           0.44174723984743   -1.76696551898433    2.84945958712525
H           2.29077735896464   -0.02186465281288   -0.33430208072872
H           1.31695735247263   -0.08366837148631    0.84722083109920
O           2.05603402280199    1.45461057598942   -1.50384720068623
H           1.37122787649574    1.95159239049379   -0.99743826243269
H           2.63762433986696    2.11213220646169   -1.88815060453349
H           0.73940125434481    0.46553097529542   -2.37210425951406
N          -1.55327380719713   -1.68769557639382    0.37087390884118
H          -0.75684900727224   -2.06204529728882   -0.27599397481527
H          -2.42217792452005   -2.19131203882302    0.23531983698853
H          -1.22632078940088   -1.73262756277643    1.36553204459909
H          -1.66340362058607   -0.67164664069359    0.12140513376636
