    26
        -50.46282785  Gyration_radius:  2.50878389753 Dipole_moment: 5.071
 S           0.84120292734734    0.68748662911257   -1.81977085997970
O           0.97515830287334    1.97101139344509   -1.13108590098350
O           2.02885901790187   -0.12521410836714   -1.70072755751503
O          -0.38037322689307    0.01056401909244   -1.41845742185151
O           0.68091049754824    1.01607950581542   -3.36083237026805
H           1.59371688612511    1.09672268258428   -3.61508787432037
O          -2.32626267550573    1.86956540782887    1.33550711436127
H          -2.70219738085211    2.27230074277999    0.55079627337716
O           0.58288287886768   -0.83905957459561    2.01663390949422
H           0.96840762648974   -1.20883348412137    2.81155139068843
O          -0.60783429258835   -2.67002265751344   -1.33751589321888
H          -0.53141480279104   -1.72721113722987   -1.57823800707735
H          -1.41089723121501   -2.73715475771478   -0.81453489121250
O          -1.88546573749991   -0.64512985361308    0.71691187653844
H          -2.35420009417231    0.88884538720124    1.17713317481907
H          -1.43719593364683   -0.41378913601680   -0.11870458753400
H          -1.16837889034692   -0.89894906052976    1.31708840016346
O           1.64720425341188   -2.07405252354261    0.05154368786582
H           0.92106949378286   -2.53799596434899   -0.41109478676927
H           1.93433644437164   -1.38942910462870   -0.58878696784080
H           1.02257733336412   -1.33310603901392    1.24293615990665
N           0.33283993686175    1.76727692160628    1.35357982403181
H           0.51731590736617    0.78411741824154    1.66085137659497
H           0.84158137597822    2.42953734233333    1.92916536595145
H           0.62603287786869    1.86966135255180    0.32231471902352
H          -0.70987550465843    1.93677862862809    1.40882382574501
