    26
        -50.46282799  Gyration_radius:  2.5088286501 Dipole_moment: 5.071
 S          -0.55324241885072    1.40700765166503    1.48575990370074
O          -1.08340615106524    0.25073898980258    2.20793343597991
O           0.80884624948351    1.70898970281315    1.85833907267473
O          -0.75487073807737    1.25936505203739    0.05428457754616
O          -1.42182285735807    2.65462743020449    1.93029403913206
H          -0.96776649614877    2.90469139853669    2.72757444990076
O           1.65352647889561   -1.44111942603860   -0.54845611917951
H           2.43325391214281   -1.98360904340546   -0.67088000623881
O          -2.30262538947509   -2.12594932896895   -0.93142718661721
H          -3.09410568033376   -1.60536160504923   -0.78362956221786
O           0.92415754579246    2.29828873013132   -1.77488511075950
H           0.25658963698088    2.12523380167832   -1.08417686814475
H           0.62915609881261    1.80662317721045   -2.54571427680146
O          -0.54482598430715   -0.48432593391135   -1.98788704973469
H          -0.70170633570794    0.20049866091779   -1.31028640601126
H           0.30464369608535   -0.88082431303503   -1.74284216083394
H          -1.71842753205543   -1.57206477855160   -1.51414621845150
O           2.48427008524844    0.91785283696032   -0.03413211875457
H           1.98680973304415    1.22675755958264    0.75216934956322
H           1.99930890334173   -0.50789903431417   -0.33493799848212
H           2.15900306891217    1.49052593400014   -0.75720218892611
N          -0.49204320186832   -1.95039833174685    1.01094313216664
H          -1.26683772237258   -2.13015078308711    0.31352748201044
H           0.39627821178696   -1.80526464481853    0.47718015213317
H          -0.73209511640665   -1.04284404380088    1.53883593674698
H          -0.40206800651093   -2.72138966881390    1.66376174959476
