    26
        -50.44778664  Gyration_radius:  2.50310430524 Dipole_moment: 3.918
 S          -1.81405612839498   -0.39327852922639   -0.71961430383460
O          -2.23377061647902   -1.75410491075759   -0.93338952125055
O          -1.65478373536064   -0.08158954876812    0.71183223151754
O          -0.64709386426018    0.01806115208139   -1.46710375474040
O          -3.01543481522712    0.51686823745718   -1.22137002814559
H          -3.74834754756641   -0.09042054501423   -1.22152290376032
O           0.41512020572230    3.34048054590131   -0.00026097156890
H           1.04548669171941    4.02741037649229    0.22264210265857
O           2.23992061153836    0.01199138527773    0.74658509384945
H           2.79502118067595   -0.30461290999826    1.46054996997077
O          -1.22311244198772   -2.77663913095430    1.33787958577729
H          -1.42329712920847   -1.98790830952778    1.84999902433028
H          -1.69843723433113   -2.63632241280918    0.49919670081548
O           0.20330941578267    1.31509377364677    1.52065215737582
H           1.04954539398976    0.78826536787546    1.23611888211045
H           0.20848291314215    2.18516216783425    0.97321039869549
H          -0.62733705560963    0.73700315416406    1.17410759124909
O           1.52499701100096    1.57927196479314   -1.55988953900767
H           0.82307749304042    2.79665141397342   -0.73248178711685
H           2.06681820993505    1.05723519886381   -0.95463067834758
H           0.73006544339620    1.03600716372136   -1.71979512593432
N           0.98649493615582   -1.96639188285843   -0.26496165451964
H           1.46739741533961   -2.69015520355499   -0.78353354716347
H           0.38026645338545   -2.42054815842069    0.42354111976473
H           1.78096820325975   -0.83506860261076    0.32867482747337
H           0.36869897027710   -1.47246175758735   -0.90643587025194
