    26
        -50.46185359  Gyration_radius:  2.44949732426 Dipole_moment: 8.672
 S           2.07697663500203   -0.38940756356298    0.66116117896940
O           1.79243915950977    0.72482297412371   -0.27510506561794
O           0.80313506231282   -0.94396786548545    1.12165124496229
O           2.96738157093290   -1.35849907586527    0.10933244203027
O           2.76950461784588    0.27502593485164    1.90859875474340
H           2.13453887994632    0.91561879973674    2.24644520340734
O          -1.02894853785346   -0.80970590979565   -2.22878985762706
H          -1.34802288188426   -1.00221168452386   -3.11161541795523
O          -2.45240053732320    0.72397117851255    1.26823202384366
H          -3.40520978350198    0.79353732372582    1.20178963927433
O           0.19971209863928    1.34935796468558    2.21047300378495
H           0.29106488532360    0.43267104015256    1.87914429204356
H          -0.68940271857212    1.40229604224106    2.57143380741116
O          -1.66905902817874   -1.62156864977160    0.41029008646201
H          -2.22716466511584   -0.22642923108998    1.06455273829375
H          -1.58204242948850   -1.54162867846660   -0.54991574313778
H          -0.75360520342123   -1.57118422764013    0.74699214280004
O           1.57368699209051   -1.03238832292491   -2.24161624940323
H           1.78013951008166   -0.25013164238381   -1.69357987179928
H           2.06737165509486   -1.73050755709463   -1.79532622507250
H          -0.04941956837239   -0.99741404598055   -2.24444444371114
N          -0.66745568826263    1.39178918314509   -0.65674677415134
H          -0.71903694025977    2.32810093161776   -1.04324462240132
H          -0.93554945618269    0.66972502038593   -1.35609445216400
H           0.35838340572740    1.17324179703712   -0.38512165738689
H          -1.28701700408474    1.29488627438543    0.18150383240612
