    26
        -50.46185352  Gyration_radius:  2.44947812071 Dipole_moment: 8.672
 S          -1.32568868012544    1.69432218370246    0.52387254817664
O          -0.62835291439959    0.93915385961976    1.59275113528086
O          -0.82498543089420    1.23221866533359   -0.77149912419280
O          -2.74619540758876    1.64264097765079    0.65026026518024
O          -0.86123090165216    3.18876508556903    0.69217179898575
H           0.09722388276696    3.17393434084206    0.59818678831762
O          -0.67686667252583   -2.49428576483503    0.06183588672702
H          -0.90397263757782   -3.41188443695984    0.21898159184348
O           2.40151385955654   -0.33230694382618   -1.50594809763781
H           3.00346657687768   -0.93699306247170   -1.94085966560172
O           1.56617809933270    2.06688520189587   -0.14307429028659
H           2.25189448832352    1.83921785133676   -0.77686323162534
H           0.73297782654511    1.72758745844534   -0.52926565273792
O          -2.40629264516572   -1.00290154141990    1.33020844271623
H          -3.07667217503647   -0.45567629178746    0.90427338090842
H          -1.40764443225374   -1.95644036964858    0.47608035476483
H          -1.78258217754889   -0.33448097133707    1.67544455130600
O          -0.06380299993472   -0.88580604794033   -2.19007438718181
H           1.50311637753659   -0.49631609292472   -1.90772769950390
H          -0.35797045725365   -1.58722193535366   -1.59219554531809
H          -0.47041811522023   -0.07157214525418   -1.83567704799658
N           1.21900033980996   -0.71898712084649    0.90033355369585
H           1.78194379132452   -0.43031697615890    0.06624917382880
H           0.62950536097878   -1.53559070781547    0.63971707209927
H           1.81819738071968   -0.92428956988379    1.69251651366788
H           0.52765765340153    0.07034438406042    1.17030167458398
