    26
        -50.46185358  Gyration_radius:  2.44954737595 Dipole_moment: 8.673
 S           2.14388790682279    0.14356296436118   -0.53510692903062
O           0.93878782242559    0.29435180885835   -1.35196743874076
O           1.73789535255737    0.05712244049589    0.88854153135128
O           2.98527080400515   -0.93777390018217   -0.93424747706243
O           2.95768304262289    1.48491511891587   -0.66030553327362
H           2.35231366914293    2.18155173433003   -0.38483440925543
O          -1.25372746450618   -2.19322400681842    0.54764670801587
H          -1.66453274585430   -2.99424516319108    0.87605599007824
O          -2.31045285207053    1.64228406249850   -0.33592517208474
H          -3.26587405723029    1.70455755346539   -0.31589732783738
O           0.41797307627068    2.55829491989602   -0.16360649615441
H           0.48853719696296    1.74926069720664   -0.71035239803528
H          -0.42694714576507    2.95159115400793   -0.39838943787487
O          -1.58446009270830   -0.47956910883540   -1.68577770347903
H          -1.60525506689521   -1.21699152074593   -1.05990240576859
H          -2.09206261941891    0.90637965902965   -0.97322535788625
H          -0.63851060941061   -0.25048989511364   -1.76736086690923
O           1.33518059152045   -2.53984311125563    0.57794629810515
H          -0.27874096547987   -2.39284815320246    0.48075658948509
H           1.88757233786582   -2.62458283449972   -0.20815027221761
H           1.58683352045494   -1.65724228296190    0.91349634748752
N          -0.76040169047960    0.33188062872763    1.45797808586593
H          -1.28209223428008    1.00291004112850    0.84688448887536
H          -0.87070384158493    0.56831810608679    2.43810512076121
H          -1.09105020667619   -0.63315456344249    1.25365632950080
H           0.29287627170648    0.34298364122873    1.20398174608849
