    26
        -50.45376596  Gyration_radius:  2.45967747032 Dipole_moment: 4.184
 S           0.49724505512969    1.57472867050913    1.09305831501971
O           1.13064071587672    0.36538906925278    1.81391100747962
O          -0.00334877290171    1.13282777934858   -0.18171255381947
O          -0.45886176716565    2.21105198998918    1.93691180082469
O           1.69931868452492    2.51845108376632    0.87192328951039
H           2.31526270837129    1.97190871880819    0.31547567068061
O          -1.94785484644637   -1.59990792617417   -0.01572493187724
H          -2.50911026829506   -2.28434717065820    0.35151998084353
O           1.65286601165271   -1.07415125609719   -1.90709562991385
H           2.03373597087113   -1.43995024568380   -2.70643364594435
O           3.06033937468685    0.68954491552819   -0.37092946022325
H           2.52430757029209    0.16511431854548   -1.00066808540435
H           3.24637484701963    0.10717524047297    0.37043898633474
O           0.67412498372625   -1.76216453933893    0.55150482199310
H          -0.29149137600280   -1.74091339846007    0.36477812318284
H           1.10556373528463   -1.63701794841804   -0.31309380596857
H           0.93493659096537   -0.52525147626268    1.32094898320958
O          -0.83091012257219   -0.32491492778908   -2.24855507797829
H           0.73041109723422   -0.76953869912838   -2.14079013011727
H          -1.35397960380250   -0.93450818288739   -1.70785590209065
H          -0.66459986796768    0.42431610466923   -1.65249772918287
N          -2.76422640535531    0.65802112286233    1.11425206796115
H          -2.23909283454958   -0.73425238207667    0.40335674073246
H          -3.23100519408088    1.22574588627333    0.41669476384975
H          -3.37634339321770    0.60553064458707    1.92034585876655
H          -1.93430288329872    1.17711260838889    1.40023654219330
