    26
        -50.46162530  Gyration_radius:  2.55209342302 Dipole_moment: 4.693
 S           1.09542432370097    1.22700739607997    1.54565964886837
O           0.50719048066338    0.17509500547433    2.34068738500233
O           2.20979170011660    0.80337778159604    0.71566782123081
O           0.07419830757872    1.93014453118909    0.76444788905059
O           1.68692160566947    2.28926190605649    2.56625480865182
H           2.23178856688292    2.86218748207605    2.03358749266103
O          -0.20776015111882   -2.17723920895208   -0.10082897984372
H          -0.47997303471011   -3.08461249706221    0.04414988689686
O          -2.79053035011293    0.20532589505600   -1.87993329919271
H          -3.45209201117439   -0.34860315583437   -2.29548027135245
O           1.15033191080889    1.31625972218592   -1.69596886967080
H           1.71257160411112    1.04909752188845   -0.94650901236155
H           0.52286560595820    1.92963592633685   -1.29792013736758
O          -0.42463972957627   -0.70447870034659   -2.50941292501684
H           0.20940374568518    0.03200689971348   -2.36745831640587
H          -0.23749368979680   -1.33999524480794   -1.80432763482470
H          -1.91116193262915   -0.07928930007307   -2.25924957394971
O           1.91979540000611   -1.79082329776383    1.32852408076835
H           1.42371291665748   -1.25839476571999    1.98140002835780
H           0.66292121219173   -2.07313892635817    0.38746698211621
H           2.44547345828353   -1.11310174866722    0.87858392556157
N          -1.68985830073105    0.02546365222247    0.52323194218185
H          -1.12136208201918   -0.84238926205633    0.39394445881332
H          -2.23917242318575   -0.03882232461837    1.37385070335958
H          -1.01581203631390    0.84626712320147    0.61934663317485
H          -2.28253508697322    0.15975756923101   -0.33971468669417
