    26
        -50.46162539  Gyration_radius:  2.55228066624 Dipole_moment: 4.697
 S          -1.05343500548342    1.85168376899571    0.74846137472131
O          -2.01419508740312    1.39153537981568   -0.23901010343686
O          -0.97505689883965    1.03225664836878    1.93465229478659
O           0.27338919843190    2.05550666793342    0.16041654070619
O          -1.55719609979669    3.28168192912003    1.21929950594906
H          -1.78293779575733    3.73920158441871    0.41393952240562
O          -0.36958434623729   -2.08580321447330    0.55733743075441
H          -0.39400736421167   -2.92399278736236    1.02139241015448
O           3.09983491472752   -0.94849856824302   -0.92079852180657
H           3.66774032511203   -1.71912165440528   -0.94921317404473
O          -0.32047913333566    0.86195532925762   -2.25168881071841
H           0.33934293795380    1.44702000374146   -1.86354254550984
H          -1.09242433997307    0.97121231069889   -1.66733846974955
O          -2.58858743834036   -0.86102307463188    1.10085620659227
H          -1.26945902969835   -1.66686397757248    0.70570042529955
H          -2.13359028784481   -0.24035145242940    1.70408404971993
H          -2.79436421684985   -0.28982604192588    0.34646448634108
O           0.79119380792179   -1.56952221475588   -1.97302122488197
H           0.36508267953352   -0.72395865515274   -2.23382393470180
H           2.29041095167575   -1.17892034548123   -1.45891825727958
H           0.28099690246638   -1.88789422305079   -1.21517101087165
N           1.46281181108206   -0.11214307776222    0.98761228501303
H           1.03219017007972    0.80336167996461    0.65035575322902
H           0.72748017725649   -0.85308845026631    0.92879950820511
H           2.25338959641721   -0.38412159053008    0.34356332110204
H           1.76145359111326    0.00971401573617    1.94959092802427
