    26
        -50.46162544  Gyration_radius:  2.55225874398 Dipole_moment: 4.692
 S          -2.14515631184361   -0.07525670944691    0.70001554940743
O          -2.01491721725172   -1.30451649557304   -0.04614081699667
O          -1.45692786980567   -0.07183804813994    1.97917486655544
O          -1.77195124823598    1.08064836532056   -0.11992905449733
O          -3.68867646765032    0.09197419819754    1.03071721045367
H          -3.72592487560545    0.79299639913813    1.67555086144350
O           1.86014717970513    1.64070889292975   -2.28221043251017
H           2.64005616967025    1.53026201168011   -2.82692584582589
O           1.42969992831988   -1.65117903096437   -0.16266710240726
H           1.91228270400072   -2.42542635823154   -0.45604990996308
O           0.30474205772483    1.89384851337033    1.49764666022917
H          -0.25491911328589    2.23344895608544    0.79066615170442
H          -0.22238618944824    1.16618482280238    1.87434616265496
O          -0.31120691022759   -2.46453779962989    1.57713846476286
H           0.82493806205479   -1.97022850895103    0.57198358454302
H          -0.46742307874178   -1.73197425920048    2.19081763587235
H          -1.04532869427001   -2.35322725265609    0.94084516094015
O           2.45176159079624    0.96848250886141    0.17144007002447
H           2.16084615667004    1.51904076146665   -1.33736777340570
H           1.77748286425841    1.38827619801548    0.74914856948463
H           2.25312355667162    0.02194456473946    0.19561733124804
N          -0.10250613494309   -0.06226995427635   -1.76438439491630
H          -0.61910441520065   -0.54062723430398   -2.49494659931943
H           0.41349730434309   -0.75433128330052   -1.17451509296069
H           0.59732803060054    0.63134725881016   -2.14257374718683
H          -0.79947706831102    0.44624947326341   -1.13739752932628
