    26
        -50.46162545  Gyration_radius:  2.55220759051 Dipole_moment: 4.692
 S           0.10160836922665    1.73498764622342    1.44069969886933
O          -1.11529699711819    2.06967094813583    0.72171922905457
O          -0.01794876905050    0.59920517481686    2.32409533063185
O           1.24200247375429    1.57848908319819    0.53365315448707
O           0.42958729136688    2.98884814705612    2.35741035845065
H           0.31336112914274    3.74456846468993    1.78805186109461
O          -1.21890570685698   -1.81294398809657    0.14865855530039
H          -1.56134508982080   -2.67504411723256    0.38946277971546
O           2.06524349807341   -1.73151015967053   -2.02483133576709
H           2.18115106385018   -2.60368336993570   -2.40302356694653
O          -0.24942380622545    1.63937795774960   -1.78144854198923
H           0.66373986427739    1.73595964220879   -1.48944033846314
H          -0.76581280608108    1.83871411029580   -0.97967254232911
O          -2.45434085188751   -0.07409635438833    1.62165205477007
H          -1.66274799657534    0.06183800306415    2.17938458436472
H          -2.48865974506838    0.75369577914170    1.12032979447593
H          -1.76928642952199   -1.14883486531846    0.66182281537374
O          -0.39958933564521   -0.96584050610524   -2.42591206349231
H           1.16643282671753   -1.41500374424401   -2.32461985791891
H          -0.86314357384761   -1.29285663928145   -1.64220820077235
H          -0.40862801438459    0.01261750079704   -2.34115057060729
N           1.37601179266618   -1.02338945285114    0.43366232916128
H           1.85472516900371   -1.37132628678143    1.25779197437898
H           1.38364543312817    0.04258841059865    0.46488600707834
H           1.81909831507227   -1.34936536784000   -0.46702764442768
H           0.37852187580985   -1.33666600622745    0.43605413550721
