    26
        -50.46306146  Gyration_radius:  2.54949465345 Dipole_moment: 2.584
 S          -0.90795886664668    0.63668063786108    1.93357112358896
O          -1.86536332527144    0.63650308495896    0.83452867377780
O          -0.80870418500052   -0.65071702908238    2.58920957085709
O           0.37452615988429    1.17870286250414    1.52469320707072
O          -1.48511711289634    1.62770749821154    3.03358687924865
H          -1.96940264281084    1.02546038269549    3.58882499713519
O           0.35443444358827   -2.54530824913680    1.15003779537655
H          -0.12158873172564   -2.01722341984599    1.82706688963086
O          -0.12870197117293    0.79481342250885   -2.75472309593411
H          -0.03139586567664    1.29914567935740   -3.56361060372081
O           1.99424704407650   -0.69159014146712   -2.03525422375967
H           1.63421652718712   -1.56551866910034   -2.20546725507841
H           1.28532855259862   -0.06495736443227   -2.29786957585583
O          -1.20640332139408    2.41706342087216   -0.97258203402696
H          -0.47597846324099    1.42778959805406   -2.07523963785980
H          -2.05830727833257    2.80627364398032   -1.17953539373216
H          -1.37399384483757    1.80295164179837   -0.22066820233802
O          -0.92926313732189   -1.24067378314119   -0.85717231851919
H          -1.37533243390602   -0.63915979385236   -0.23273507681525
H          -0.79442048939980   -0.71597576578534   -1.65428388908431
H          -0.17048322450069   -2.40658215301647    0.34283344038144
N           2.04404028105835   -0.62011763148220    0.64683881179594
H           1.44129594833854    0.17987991971542    0.99677601916891
H           1.49305413829587   -1.50888915926292    0.88921565636835
H           2.12638105168197   -0.56431398180679   -0.39888879567132
H           2.95489076743714   -0.60194468109870    1.09084701800163
