    26
        -50.46306169  Gyration_radius:  2.54969413819 Dipole_moment: 2.588
 S          -0.97228480145406    1.81554550648364    0.85459930612799
O          -1.12728327261636    1.71932721454730   -0.59144889789511
O          -2.01389821433027    1.11540706058412    1.57703574778431
O           0.36840592123022    1.45056703362083    1.27332120759343
O          -1.15817262441227    3.34926992208357    1.22657772666791
H          -2.08663506365517    3.37773182489276    1.43260047895491
O          -1.89485738443700   -1.52534828141270    1.41330493630462
H          -2.13989809523416   -0.58905377481279    1.57789312040900
O           1.57155775938387   -0.66415732854765   -2.30588050380859
H           2.28940553465316   -0.71637970671393   -2.93833945204502
O           1.67648099801543   -2.39406948599471   -0.24875791682588
H           0.95343070224099   -2.97412905674563   -0.49985632027329
H           1.73576178247454   -1.72899662987587   -0.96858693579335
O          -1.04345252985103   -0.92662153714308   -1.09491256207918
H          -1.19778169148252    0.02678043732232   -0.96110341187379
H          -0.28512026763206   -0.97465726259250   -1.68784210761365
H          -1.80581038284728   -1.57044224880065    0.44548370895093
O           1.19560622924432    1.89778834193600   -1.79258145265038
H           0.37963313729264    1.87148274062646   -1.24115253498405
H           1.47907547959058    0.29487839938055   -2.07208469711353
H           0.98697017725065    2.47432715112792   -2.53019079403588
N           0.63958014357766   -1.07724110952682    1.84740549305741
H          -0.38842231543608   -1.38262520815559    1.79718916631261
H           1.16316049421977   -1.57312682582401    1.08379298211566
H           0.62555511899554   -0.03526292640275    1.64743950684790
H           1.04899314522582   -1.26099428005077    2.75609421586363
