    26
        -50.45450930  Gyration_radius:  2.45166443657 Dipole_moment: 5.296
 S           0.22467160138175    1.65554924488534    1.25247503809269
O           1.18570220485880    0.53094232768610    1.67310333442719
O          -0.67041155004441    1.16126644373088    0.22195859305099
O          -0.40183696829359    2.16143056776376    2.41968361322360
O           1.13930112798772    2.71774222627163    0.60423758299383
H           1.02994405405802    2.66858486809195   -0.39410846927789
O          -0.59267818159667   -2.50992829329153    0.42284526425531
H          -0.57230688178811   -3.39374266293009    0.79195154527511
O           0.99994044086306   -0.17908116996785   -2.57615000451720
H           1.15221453247460   -0.51625075966366   -3.45965042848209
O           0.58994165758539    2.42186946323564   -1.89474406829903
H          -0.34814373233392    2.30294378266120   -1.71268958862437
H           0.90664790383949    1.54573898750693   -2.19354601673501
O          -1.33979615256486   -0.73644245576399   -1.57644351706297
H          -1.24221138487656   -1.53806427748835   -1.04087214113881
H          -1.28526802787782   -0.00853026310818   -0.93263580763218
H           0.06428543582766   -0.42515955651097   -2.32274088205424
O           1.70250742133283   -1.16355345697438   -0.12571199215929
H           1.45014976756029   -0.11713407852389    0.91935095927832
H           0.93136366234891   -1.75176627558761    0.01491098880449
H           1.60396120518399   -0.78836125069085   -1.01990827132139
N          -1.36668999673884   -0.77195129805459    2.29203062060243
H          -0.91511467692907   -1.90156821135257    1.14927601143446
H          -0.57821863921400   -0.57084432761627    2.89668203887903
H          -1.47816525509326    0.05409294622883    1.71251761838000
H          -2.18978956795148   -0.84778251053030    2.87817799860676
