    26
        -50.45476241  Gyration_radius:  2.60397912669 Dipole_moment: 5.769
 S          -0.75332410809959    1.60248076405498    1.94372316445619
O          -2.01398574010481    1.67010059924773    1.23396283719521
O          -0.61765932009109    0.34475985091036    2.69505316773197
O           0.41317890408045    1.82748894468589    1.12430134085347
O          -0.80220533579306    2.76111294382430    3.02952521864284
H          -1.71527662131068    2.74095103252986    3.29875848492367
O          -1.21709185654056   -1.89227225883303   -0.53801820534489
H          -2.02387269488022   -2.30249311563381   -0.22535037811659
O           2.45169552640125   -0.69462043365091   -0.92711782976676
H           3.33986531733049   -0.73946196268752   -1.28108339885985
O           0.75031813532800    1.52766666978409   -1.48202095549398
H           0.64390026461802    1.87474721184737   -0.57461469233520
H           1.48447740704410    0.90433380683458   -1.39800741897784
O          -1.71756780581780    0.52536109939227   -1.12790686901175
H          -1.47197590508760   -0.93039003690138   -0.77992358879375
H          -1.95235521412313    0.98615633682375   -0.29209523566705
H          -0.87254943670838    0.94206620056642   -1.40555943039663
O           0.57984497272344   -1.52486313020561   -2.61101819947182
H          -0.10526548386128   -1.87189649675432   -2.01779324173299
H           0.23959773741771   -0.68706433043786   -2.94016621464688
H           1.85131889122856   -1.10847112329662   -1.59511793615926
N           0.72183853646941   -1.20052162463233    1.17593207729075
H           1.43077826828594   -0.71971797718923    0.60380271701928
H          -0.02068654779753   -1.57757974059385    0.53158543397602
H           1.15691999897564   -1.95107676968463    1.70288440834160
H           0.22008212033946   -0.50679646001527    1.85626474434814
