    26
        -50.45476260  Gyration_radius:  2.60389468774 Dipole_moment: 5.773
 S          -0.86094606587916   -1.19694616779816   -2.17691323007381
O          -0.24010353823288   -2.38320384799785   -1.62496697191489
O          -2.14743134400120   -0.90202547547074   -1.52675423282578
O          -0.02035643247222   -0.02387526104579   -2.18458684323069
O          -1.20182136448175   -1.54723122054894   -3.68851938384800
H          -1.46110495969453   -2.46125095743202   -3.62520764477290
O           0.49005962872723    2.60743250833933    0.56014835725088
H           0.78976935792753    3.51564254122203    0.59831503507580
O          -0.53452291446447   -0.80046277604660    2.10460582353251
H          -1.02946154485676   -1.54239521655171    2.45334552069260
O           2.07033203325331    0.58300804829636   -0.68201257123391
H           1.46729255277309    0.33790347231190   -1.41102290228502
H           1.69377602427993    1.40874488052941   -0.34878969349872
O           1.47109515632441    1.06949284085503    2.48418987684851
H           2.17624160480450    0.61153616343684    2.01617932147087
H           0.83863502009466    2.15221858964757    1.36585895145006
H           0.76987974548742    0.41109701713106    2.61262144589019
O           1.20076067782480   -1.68119229831388    0.47446396708159
H           0.16054269383631   -1.20511269668307    1.47090323188046
H           0.71619656995713   -2.06722851954552   -0.28857376492211
H           1.67057532578540   -0.90588232852614    0.09641534204467
N          -1.60988358772170    0.82522834713206    0.26698719069348
H          -1.26619673700954    0.22280044264400    1.05912891552804
H          -1.84810785524372    0.14760318991267   -0.55756945164651
H          -2.43788110095414    1.34411195364713    0.54164565013095
H          -0.85733894607444    1.47998677086924    0.01010806067277
