    26
        -50.45476252  Gyration_radius:  2.60393100618 Dipole_moment: 5.771
 S          -2.56114597676799    0.58208403158068    0.12075550816870
O          -2.47932057770111    0.11335474706516    1.48859532811077
O          -2.00326628478733    1.93563978353248   -0.02606633291589
O          -1.98499441361844   -0.30862160233524   -0.85774377572867
O          -4.11109092954544    0.70698417675130   -0.20464664859696
H          -4.46191328386478    1.01928422384570    0.62364276956703
O           1.50762600801516    0.88447261204696    1.51616634027831
H           1.45850994952862    1.46316431136575    2.27754070390772
O           1.64003806649526   -0.52951545209915   -2.09374208430813
H           2.08465739228762   -0.86493566562471   -2.87217122854616
O          -0.13232597343723   -2.17619736004279   -0.58083499943631
H          -0.96265526092040   -1.67868533093791   -0.71576032348087
H           0.46544858479335   -1.79580500534718   -1.23852561609084
O          -0.12575038507017   -1.02991227731699    1.84969377781791
H          -0.09200361353345   -1.58959628972435    1.04326441247209
H           0.84941518899358    0.12304703805813    1.70458201688462
H          -1.03080830200043   -0.64669107749330    1.84151792980771
O           2.85720636426978   -1.13166166306245    0.18335393727480
H           2.61934579810906   -0.38709818112231    0.75845970598460
H           2.32759013885910   -1.87530959608366    0.48743605260057
H           2.22053889215822   -0.72955166468582   -1.31856327196412
N           0.39371082027850    1.58843515617510   -0.81614141498581
H           0.75952768630975    2.42148440371247   -1.26613284845528
H          -0.65886409337903    1.73335458365791   -0.55763337087028
H           0.52033038846828    0.77412696881511   -1.43414811345700
H           0.90019380604214    1.39814913926227    0.08710153594806
